5
1 -151.8974265000 0.000000 %  @IN
O 1.216947 0.092910 -0.064072
O -1.233002 -0.092910 -0.064071
H 0.389282 0.052171 -0.063076
H 1.447066 -0.615333 0.548124
H -1.551407 0.599280 0.540097
5
2 -151.9289869700 0.000000 %  @IN
O 1.218954 0.092910 -0.064072
O -1.230995 -0.092910 -0.064071
H 0.291960 0.039128 -0.063076
H 1.460109 -0.613326 0.547121
H -1.538364 0.601287 0.541100
5
3 -151.9387580000 0.000000 %  @IN
O 1.220961 0.092910 -0.064072
O -1.228988 -0.092910 -0.064071
H 0.194638 0.026085 -0.063076
H 1.473152 -0.611319 0.546118
H -1.525321 0.603294 0.542103
5
4 -151.9402458300 0.000000 %  @IN
O 1.222968 0.092910 -0.064072
O -1.226981 -0.092910 -0.064071
H 0.097316 0.013042 -0.063076
H 1.486195 -0.609312 0.545115
H -1.512278 0.605301 0.543106
5
5 -151.9400835200 0.000000 %  @IN
O 1.224975 0.092910 -0.064072
O -1.224974 -0.092910 -0.064071
H -0.000006 -0.000001 -0.063076
H 1.499238 -0.607305 0.544112
H -1.499235 0.607308 0.544109
5
6 -151.9402458300 0.000000 %  @IN
O 1.222968 0.092910 -0.064072
O -1.226981 -0.092910 -0.064071
H 0.097316 0.013042 -0.063076
H 1.486195 -0.609312 0.545115
H -1.512278 0.605301 0.543106
5
7 -151.9387580000 0.000000 %  @IN
O 1.220961 0.092910 -0.064072
O -1.228988 -0.092910 -0.064071
H 0.194638 0.026085 -0.063076
H 1.473152 -0.611319 0.546118
H -1.525321 0.603294 0.542103
5
8 -151.9289869700 0.000000 %  @IN
O 1.218954 0.092910 -0.064072
O -1.230995 -0.092910 -0.064071
H 0.291960 0.039128 -0.063076
H 1.460109 -0.613326 0.547121
H -1.538364 0.601287 0.541100
5
9 -151.8974265100 0.000000 %  @IN
O 1.216947 0.092910 -0.064072
O -1.233002 -0.092910 -0.064071
H 0.389282 0.052171 -0.063076
H 1.447066 -0.615333 0.548124
H -1.551407 0.599280 0.540097
5
11 -151.9312555300 0.000000 %  @IN
O 1.224975 0.107910 -0.049072
O -1.224974 -0.107910 -0.049071
H -0.000006 -0.000001 -0.048076
H 1.529238 -0.832315 0.274097
H -1.529235 0.832318 0.274094
5
12 -151.9359646700 0.000000 %  @IN
O 1.224975 0.104910 -0.052072
O -1.224974 -0.104910 -0.052071
H -0.000006 -0.000001 -0.051076
H 1.523238 -0.787313 0.328100
H -1.523235 0.787316 0.328097
5
13 -151.9385597100 0.000000 %  @IN
O 1.224975 0.101910 -0.055072
O -1.224974 -0.101910 -0.055071
H -0.000006 -0.000001 -0.054076
H 1.517238 -0.742311 0.382103
H -1.517235 0.742314 0.382100
5
14 -151.9396987400 0.000000 %  @IN
O 1.224975 0.098910 -0.058072
O -1.224974 -0.098910 -0.058071
H -0.000006 -0.000001 -0.057076
H 1.511238 -0.697309 0.436106
H -1.511235 0.697312 0.436103
5
15 -151.9400404800 0.000000 %  @IN
O 1.224975 0.095910 -0.061072
O -1.224974 -0.095910 -0.061071
H -0.000006 -0.000001 -0.060076
H 1.505238 -0.652307 0.490109
H -1.505235 0.652310 0.490106
5
16 -151.9400835200 0.000000 %  @IN
O 1.224975 0.092910 -0.064072
O -1.224974 -0.092910 -0.064071
H -0.000006 -0.000001 -0.063076
H 1.499238 -0.607305 0.544112
H -1.499235 0.607308 0.544109
5
17 -151.9400404800 0.000000 %  @IN
O 1.224975 0.095910 -0.061072
O -1.224974 -0.095910 -0.061071
H -0.000006 -0.000001 -0.060076
H 1.505238 -0.652307 0.490109
H -1.505235 0.652310 0.490106
5
18 -151.9396987400 0.000000 %  @IN
O 1.224975 0.098910 -0.058072
O -1.224974 -0.098910 -0.058071
H -0.000006 -0.000001 -0.057076
H 1.511238 -0.697309 0.436106
H -1.511235 0.697312 0.436103
5
19 -151.9385597100 0.000000 %  @IN
O 1.224975 0.101910 -0.055072
O -1.224974 -0.101910 -0.055071
H -0.000006 -0.000001 -0.054076
H 1.517238 -0.742311 0.382103
H -1.517235 0.742314 0.382100
5
20 -151.9359646700 0.000000 %  @IN
O 1.224975 0.104910 -0.052072
O -1.224974 -0.104910 -0.052071
H -0.000006 -0.000001 -0.051076
H 1.523238 -0.787313 0.328100
H -1.523235 0.787316 0.328097
5
21 -151.9312555300 0.000000 %  @IN
O 1.224975 0.107910 -0.049072
O -1.224974 -0.107910 -0.049071
H -0.000006 -0.000001 -0.048076
H 1.529238 -0.832315 0.274097
H -1.529235 0.832318 0.274094
5
22 -151.9299034700 0.000000 %  @IN
O 1.274850 0.082935 -0.069062
O -1.274849 -0.082935 -0.069061
H -0.000006 -0.000001 0.086549
H 1.823428 -0.537480 0.509197
H -1.823425 0.537483 0.509194
5
23 -151.9341768900 0.000000 %  @IN
O 1.264875 0.084930 -0.068064
O -1.264874 -0.084930 -0.068063
H -0.000006 -0.000001 0.056624
H 1.758590 -0.551445 0.516180
H -1.758587 0.551448 0.516177
5
24 -151.9370552700 0.000000 %  @IN
O 1.254900 0.086925 -0.067066
O -1.254899 -0.086925 -0.067065
H -0.000006 -0.000001 0.026699
H 1.693752 -0.565410 0.523163
H -1.693749 0.565413 0.523160
5
25 -151.9388352900 0.000000 %  @IN
O 1.244925 0.088920 -0.066068
O -1.244924 -0.088920 -0.066067
H -0.000006 -0.000001 -0.003226
H 1.628914 -0.579375 0.530146
H -1.628911 0.579378 0.530143
5
26 -151.9397815000 0.000000 %  @IN
O 1.234950 0.090915 -0.065070
O -1.234949 -0.090915 -0.065069
H -0.000006 -0.000001 -0.033151
H 1.564076 -0.593340 0.537129
H -1.564073 0.593343 0.537126
5
27 -151.9400835200 0.000000 %  @IN
O 1.224975 0.092910 -0.064072
O -1.224974 -0.092910 -0.064071
H -0.000006 -0.000001 -0.063076
H 1.499238 -0.607305 0.544112
H -1.499235 0.607308 0.544109
5
28 -151.9397814900 0.000000 %  @IN
O 1.234950 0.090915 -0.065070
O -1.234949 -0.090915 -0.065069
H -0.000006 -0.000001 -0.033151
H 1.564076 -0.593340 0.537129
H -1.564073 0.593343 0.537126
5
29 -151.9388352900 0.000000 %  @IN
O 1.244925 0.088920 -0.066068
O -1.244924 -0.088920 -0.066067
H -0.000006 -0.000001 -0.003226
H 1.628914 -0.579375 0.530146
H -1.628911 0.579378 0.530143
5
30 -151.9370552700 0.000000 %  @IN
O 1.254900 0.086925 -0.067066
O -1.254899 -0.086925 -0.067065
H -0.000006 -0.000001 0.026699
H 1.693752 -0.565410 0.523163
H -1.693749 0.565413 0.523160
5
31 -151.9341768900 0.000000 %  @IN
O 1.264875 0.084930 -0.068064
O -1.264874 -0.084930 -0.068063
H -0.000006 -0.000001 0.056624
H 1.758590 -0.551445 0.516180
H -1.758587 0.551448 0.516177
5
32 -151.9299034700 0.000000 %  @IN
O 1.274850 0.082935 -0.069062
O -1.274849 -0.082935 -0.069061
H -0.000006 -0.000001 0.086549
H 1.823428 -0.537480 0.509197
H -1.823425 0.537483 0.509194
5
33 -151.9285668500 0.000000 %  @IN
O 1.249910 0.092910 -0.079032
O -1.200039 -0.092910 -0.049111
H -0.094751 0.174529 -0.063076
H 1.190073 -0.687090 0.593977
H -1.808400 0.527523 0.494244
5
34 -151.9338482900 0.000000 %  @IN
O 1.244923 0.092910 -0.076040
O -1.205026 -0.092910 -0.052103
H -0.075802 0.139623 -0.063076
H 1.251906 -0.671133 0.584004
H -1.746567 0.543480 0.504217
5
35 -151.9371467200 0.000000 %  @IN
O 1.239936 0.092910 -0.073048
O -1.210013 -0.092910 -0.055095
H -0.056853 0.104717 -0.063076
H 1.313739 -0.655176 0.574031
H -1.684734 0.559437 0.514190
5
36 -151.9389793900 0.000000 %  @IN
O 1.234949 0.092910 -0.070056
O -1.215000 -0.092910 -0.058087
H -0.037904 0.069811 -0.063076
H 1.375572 -0.639219 0.564058
H -1.622901 0.575394 0.524163
5
37 -151.9398398600 0.000000 %  @IN
O 1.229962 0.092910 -0.067064
O -1.219987 -0.092910 -0.061079
H -0.018955 0.034905 -0.063076
H 1.437405 -0.623262 0.554085
H -1.561068 0.591351 0.534136
5
38 -151.9400835200 0.000000 %  @IN
O 1.224975 0.092910 -0.064072
O -1.224974 -0.092910 -0.064071
H -0.000006 -0.000001 -0.063076
H 1.499238 -0.607305 0.544112
H -1.499235 0.607308 0.544109
5
39 -151.9398398600 0.000000 %  @IN
O 1.229962 0.092910 -0.067064
O -1.219987 -0.092910 -0.061079
H -0.018955 0.034905 -0.063076
H 1.437405 -0.623262 0.554085
H -1.561068 0.591351 0.534136
5
40 -151.9389793900 0.000000 %  @IN
O 1.234949 0.092910 -0.070056
O -1.215000 -0.092910 -0.058087
H -0.037904 0.069811 -0.063076
H 1.375572 -0.639219 0.564058
H -1.622901 0.575394 0.524163
5
41 -151.9371467200 0.000000 %  @IN
O 1.239936 0.092910 -0.073048
O -1.210013 -0.092910 -0.055095
H -0.056853 0.104717 -0.063076
H 1.313739 -0.655176 0.574031
H -1.684734 0.559437 0.514190
5
42 -151.9338482900 0.000000 %  @IN
O 1.244923 0.092910 -0.076040
O -1.205026 -0.092910 -0.052103
H -0.075802 0.139623 -0.063076
H 1.251906 -0.671133 0.584004
H -1.746567 0.543480 0.504217
5
43 -151.9285668500 0.000000 %  @IN
O 1.249910 0.092910 -0.079032
O -1.200039 -0.092910 -0.049111
H -0.094751 0.174529 -0.063076
H 1.190073 -0.687090 0.593977
H -1.808400 0.527523 0.494244
5
44 -151.9138908300 0.000000 %  @IN
O 1.360291 0.116241 -0.064072
O -1.360290 -0.116241 -0.064071
H -0.000006 -0.000001 -0.249717
H 1.251937 -0.691291 0.600104
H -1.251934 0.691294 0.600101
5
45 -151.9247596300 0.000000 %  @IN
O 1.333228 0.111575 -0.064072
O -1.333227 -0.111575 -0.064071
H -0.000006 -0.000001 -0.212389
H 1.301398 -0.674494 0.588906
H -1.301395 0.674497 0.588903
5
46 -151.9322259600 0.000000 %  @IN
O 1.306165 0.106909 -0.064072
O -1.306164 -0.106909 -0.064071
H -0.000006 -0.000001 -0.175061
H 1.350858 -0.657697 0.577707
H -1.350855 0.657700 0.577704
5
47 -151.9368676100 0.000000 %  @IN
O 1.279101 0.102243 -0.064072
O -1.279100 -0.102243 -0.064071
H -0.000006 -0.000001 -0.137732
H 1.400318 -0.640899 0.566509
H -1.400315 0.640902 0.566506
5
48 -151.9393245800 0.000000 %  @IN
O 1.252038 0.097576 -0.064072
O -1.252037 -0.097576 -0.064071
H -0.000006 -0.000001 -0.100404
H 1.449778 -0.624102 0.555310
H -1.449775 0.624105 0.555307
5
49 -151.9400835200 0.000000 %  @IN
O 1.224975 0.092910 -0.064072
O -1.224974 -0.092910 -0.064071
H -0.000006 -0.000001 -0.063076
H 1.499238 -0.607305 0.544112
H -1.499235 0.607308 0.544109
5
50 -151.9392853700 0.000000 %  @IN
O 1.252713 0.097693 -0.064072
O -1.252712 -0.097693 -0.064071
H -0.000006 -0.000001 -0.101335
H 1.448545 -0.624521 0.555590
H -1.448542 0.624524 0.555587
5
51 -151.9366929600 0.000000 %  @IN
O 1.280451 0.102475 -0.064072
O -1.280450 -0.102475 -0.064071
H -0.000006 -0.000001 -0.139593
H 1.397852 -0.641737 0.567067
H -1.397849 0.641740 0.567064
5
52 -151.9317734200 0.000000 %  @IN
O 1.308188 0.107258 -0.064072
O -1.308187 -0.107258 -0.064071
H -0.000006 -0.000001 -0.177852
H 1.347159 -0.658953 0.578545
H -1.347156 0.658956 0.578542
5
53 -151.9238366900 0.000000 %  @IN
O 1.335926 0.112040 -0.064072
O -1.335925 -0.112040 -0.064071
H -0.000006 -0.000001 -0.216111
H 1.296466 -0.676169 0.590022
H -1.296463 0.676172 0.590019
5
54 -151.9122769400 0.000000 %  @IN
O 1.363664 0.116823 -0.064072
O -1.363663 -0.116823 -0.064071
H -0.000006 -0.000001 -0.254370
H 1.245773 -0.693385 0.601500
H -1.245770 0.693388 0.601497
5
55 -151.9192698700 0.000000 %  @IN
O 1.228630 0.096565 -0.075034
O -1.228629 -0.096565 -0.075033
H -0.000006 -0.000001 0.280459
H 1.415183 -0.625578 0.555074
H -1.415180 0.625581 0.555071
5
56 -151.9265850200 0.000000 %  @IN
O 1.227899 0.095834 -0.072842
O -1.227898 -0.095834 -0.072841
H -0.000006 -0.000001 0.211752
H 1.431994 -0.621924 0.552882
H -1.431991 0.621927 0.552879
5
57 -151.9323976500 0.000000 %  @IN
O 1.227168 0.095103 -0.070649
O -1.227167 -0.095103 -0.070648
H -0.000006 -0.000001 0.143045
H 1.448805 -0.618269 0.550689
H -1.448802 0.618272 0.550686
5
58 -151.9366187200 0.000000 %  @IN
O 1.226437 0.094372 -0.068457
O -1.226436 -0.094372 -0.068456
H -0.000006 -0.000001 0.074338
H 1.465616 -0.614614 0.548497
H -1.465613 0.614617 0.548494
5
59 -151.9391902400 0.000000 %  @IN
O 1.225706 0.093641 -0.066264
O -1.225705 -0.093641 -0.066263
H -0.000006 -0.000001 0.005631
H 1.482427 -0.610960 0.546304
H -1.482424 0.610963 0.546301
5
60 -151.9400835200 0.000000 %  @IN
O 1.224975 0.092910 -0.064072
O -1.224974 -0.092910 -0.064071
H -0.000006 -0.000001 -0.063076
H 1.499238 -0.607305 0.544112
H -1.499235 0.607308 0.544109
5
61 -151.9392684300 0.000000 %  @IN
O 1.225672 0.093607 -0.066163
O -1.225671 -0.093607 -0.066162
H -0.000006 -0.000001 0.002464
H 1.483202 -0.610791 0.546203
H -1.483199 0.610794 0.546200
5
62 -151.9369253800 0.000000 %  @IN
O 1.226370 0.094305 -0.068255
O -1.226369 -0.094305 -0.068254
H -0.000006 -0.000001 0.068005
H 1.467165 -0.614277 0.548295
H -1.467162 0.614280 0.548292
5
63 -151.9330777200 0.000000 %  @IN
O 1.227067 0.095002 -0.070346
O -1.227066 -0.095002 -0.070345
H -0.000006 -0.000001 0.133545
H 1.451129 -0.617764 0.550386
H -1.451126 0.617767 0.550383
5
64 -151.9277725200 0.000000 %  @IN
O 1.227765 0.095700 -0.072438
O -1.227764 -0.095700 -0.072437
H -0.000006 -0.000001 0.199086
H 1.435093 -0.621250 0.552478
H -1.435090 0.621253 0.552475
5
65 -151.9210830300 0.000000 %  @IN
O 1.228462 0.096397 -0.074529
O -1.228461 -0.096397 -0.074528
H -0.000006 -0.000001 0.264626
H 1.419057 -0.624736 0.554569
H -1.419054 0.624739 0.554566
5
66 -151.9205844300 0.000000 %  @IN
O 1.228351 0.103041 -0.067448
O -1.221598 -0.082779 -0.060695
H 0.023633 -0.317458 -0.063076
H 1.421563 -0.624192 0.554243
H -1.576910 0.590421 0.533978
5
67 -151.9274758200 0.000000 %  @IN
O 1.227676 0.101015 -0.066773
O -1.222273 -0.084805 -0.061370
H 0.018905 -0.253967 -0.063076
H 1.437098 -0.620814 0.552217
H -1.561375 0.593799 0.536004
5
68 -151.9329364300 0.000000 %  @IN
O 1.227001 0.098989 -0.066098
O -1.222948 -0.086831 -0.062045
H 0.014177 -0.190475 -0.063076
H 1.452633 -0.617437 0.550191
H -1.545840 0.597176 0.538030
5
69 -151.9368897200 0.000000 %  @IN
O 1.226325 0.096963 -0.065422
O -1.223624 -0.088857 -0.062721
H 0.009450 -0.126984 -0.063076
H 1.468168 -0.614060 0.548165
H -1.530305 0.600553 0.540056
5
70 -151.9392825300 0.000000 %  @IN
O 1.225650 0.094936 -0.064747
O -1.224299 -0.090884 -0.063396
H 0.004722 -0.063492 -0.063076
H 1.483703 -0.610682 0.546138
H -1.514770 0.603931 0.542083
5
71 -151.9400835200 0.000000 %  @IN
O 1.224975 0.092910 -0.064072
O -1.224974 -0.092910 -0.064071
H -0.000006 -0.000001 -0.063076
H 1.499238 -0.607305 0.544112
H -1.499235 0.607308 0.544109
5
72 -151.9392825300 0.000000 %  @IN
O 1.225650 0.094936 -0.064747
O -1.224299 -0.090884 -0.063396
H 0.004722 -0.063492 -0.063076
H 1.483703 -0.610682 0.546138
H -1.514770 0.603931 0.542083
5
73 -151.9368897200 0.000000 %  @IN
O 1.226325 0.096963 -0.065422
O -1.223624 -0.088857 -0.062721
H 0.009450 -0.126984 -0.063076
H 1.468168 -0.614060 0.548165
H -1.530305 0.600553 0.540056
5
74 -151.9329364300 0.000000 %  @IN
O 1.227001 0.098989 -0.066098
O -1.222948 -0.086831 -0.062045
H 0.014177 -0.190475 -0.063076
H 1.452633 -0.617437 0.550191
H -1.545840 0.597176 0.538030
5
75 -151.9274759000 0.000000 %  @IN
O 1.227676 0.101015 -0.066773
O -1.222273 -0.084805 -0.061370
H 0.018905 -0.253966 -0.063076
H 1.437098 -0.620814 0.552217
H -1.561375 0.593799 0.536004
5
76 -151.9205844300 0.000000 %  @IN
O 1.228351 0.103041 -0.067448
O -1.221598 -0.082779 -0.060695
H 0.023633 -0.317458 -0.063076
H 1.421563 -0.624192 0.554243
H -1.576910 0.590421 0.533978
5
77 -151.9267346100 0.000000 %  @IN
O 1.223722 0.096668 -0.067830
O -1.223721 -0.096668 -0.067829
H -0.000006 -0.000001 -0.065581
H 1.525543 -0.671190 0.599228
H -1.525540 0.671193 0.599225
5
78 -151.9312000500 0.000000 %  @IN
O 1.223973 0.095916 -0.067078
O -1.223972 -0.095916 -0.067077
H -0.000006 -0.000001 -0.065080
H 1.520282 -0.658413 0.588205
H -1.520279 0.658416 0.588202
5
79 -151.9348897700 0.000000 %  @IN
O 1.224223 0.095165 -0.066327
O -1.224222 -0.095165 -0.066326
H -0.000006 -0.000001 -0.064579
H 1.515021 -0.645636 0.577182
H -1.515018 0.645639 0.577179
5
80 -151.9376895200 0.000000 %  @IN
O 1.224474 0.094413 -0.065575
O -1.224473 -0.094413 -0.065574
H -0.000006 -0.000001 -0.064078
H 1.509760 -0.632859 0.566158
H -1.509757 0.632862 0.566155
5
81 -151.9394692100 0.000000 %  @IN
O 1.224724 0.093662 -0.064824
O -1.224723 -0.093662 -0.064823
H -0.000006 -0.000001 -0.063577
H 1.504499 -0.620082 0.555135
H -1.504496 0.620085 0.555132
5
82 -151.9400835200 0.000000 %  @IN
O 1.224975 0.092910 -0.064072
O -1.224974 -0.092910 -0.064071
H -0.000006 -0.000001 -0.063076
H 1.499238 -0.607305 0.544112
H -1.499235 0.607308 0.544109
5
83 -151.9392013300 0.000000 %  @IN
O 1.224674 0.093812 -0.064974
O -1.224673 -0.093812 -0.064973
H -0.000006 -0.000001 -0.063677
H 1.505552 -0.622640 0.557342
H -1.505549 0.622643 0.557339
5
84 -151.9366834900 0.000000 %  @IN
O 1.224374 0.094714 -0.065876
O -1.224373 -0.094714 -0.065875
H -0.000006 -0.000001 -0.064279
H 1.511866 -0.637974 0.570572
H -1.511863 0.637977 0.570569
5
85 -151.9327731500 0.000000 %  @IN
O 1.224073 0.095616 -0.066778
O -1.224072 -0.095616 -0.066777
H -0.000006 -0.000001 -0.064880
H 1.518181 -0.653309 0.583801
H -1.518178 0.653312 0.583798
5
86 -151.9276813200 0.000000 %  @IN
O 1.223772 0.096518 -0.067680
O -1.223771 -0.096518 -0.067679
H -0.000006 -0.000001 -0.065481
H 1.524495 -0.668644 0.597031
H -1.524492 0.668647 0.597028
5
87 -151.9215913300 0.000000 %  @IN
O 1.223472 0.097420 -0.068582
O -1.223471 -0.097420 -0.068581
H -0.000006 -0.000001 -0.066082
H 1.530809 -0.683978 0.610261
H -1.530806 0.683981 0.610258
5
88 -151.9197326900 0.000000 %  @IN
O 1.223615 0.096991 -0.068153
O -1.226334 -0.088829 -0.059990
H 0.002715 0.002720 -0.063076
H 1.527802 -0.676675 0.603961
H -1.470671 0.537938 0.484260
5
89 -151.9272347800 0.000000 %  @IN
O 1.223887 0.096175 -0.067337
O -1.226062 -0.089645 -0.060806
H 0.002171 0.002176 -0.063076
H 1.522090 -0.662801 0.591992
H -1.476383 0.551812 0.496229
5
90 -151.9329323000 0.000000 %  @IN
O 1.224159 0.095359 -0.066521
O -1.225790 -0.090461 -0.061622
H 0.001626 0.001631 -0.063076
H 1.516377 -0.648927 0.580022
H -1.482096 0.565686 0.508199
5
91 -151.9369293500 0.000000 %  @IN
O 1.224431 0.094542 -0.065704
O -1.225518 -0.091278 -0.062439
H 0.001082 0.001087 -0.063076
H 1.510664 -0.635053 0.568052
H -1.487809 0.579560 0.520169
5
92 -151.9392985500 0.000000 %  @IN
O 1.224703 0.093726 -0.064888
O -1.225246 -0.092094 -0.063255
H 0.000538 0.000543 -0.063076
H 1.504951 -0.621179 0.556082
H -1.493522 0.593434 0.532139
5
93 -151.9400835200 0.000000 %  @IN
O 1.224975 0.092910 -0.064072
O -1.224974 -0.092910 -0.064071
H -0.000006 -0.000001 -0.063076
H 1.499238 -0.607305 0.544112
H -1.499235 0.607308 0.544109
5
94 -151.9392985500 0.000000 %  @IN
O 1.224703 0.093726 -0.064888
O -1.225246 -0.092094 -0.063255
H 0.000538 0.000543 -0.063076
H 1.504951 -0.621179 0.556082
H -1.493522 0.593434 0.532139
5
95 -151.9369293500 0.000000 %  @IN
O 1.224431 0.094542 -0.065704
O -1.225518 -0.091278 -0.062439
H 0.001082 0.001087 -0.063076
H 1.510664 -0.635053 0.568052
H -1.487809 0.579560 0.520169
5
96 -151.9329325100 0.000000 %  @IN
O 1.224159 0.095359 -0.066521
O -1.225790 -0.090461 -0.061622
H 0.001626 0.001631 -0.063076
H 1.516376 -0.648927 0.580021
H -1.482097 0.565686 0.508200
5
97 -151.9272350700 0.000000 %  @IN
O 1.223887 0.096175 -0.067337
O -1.226062 -0.089645 -0.060806
H 0.002171 0.002176 -0.063076
H 1.522089 -0.662801 0.591991
H -1.476384 0.551812 0.496230
5
98 -151.9197326900 0.000000 %  @IN
O 1.223615 0.096991 -0.068153
O -1.226334 -0.088829 -0.059990
H 0.002715 0.002720 -0.063076
H 1.527802 -0.676675 0.603961
H -1.470671 0.537938 0.484260
