2
0 -75.4984568161 0.000000 %  @IN
O 0.000000 0.000000 0.000000
H 0.700000 0.000000 0.000000
2
1 -75.5121720998 0.000000 %  @IN
O 0.000000 0.000000 0.000000
H 0.710000 0.000000 0.000000
2
2 -75.5248198853 0.000000 %  @IN
O 0.000000 0.000000 0.000000
H 0.720000 0.000000 0.000000
2
3 -75.5364703252 0.000000 %  @IN
O 0.000000 0.000000 0.000000
H 0.730000 0.000000 0.000000
2
4 -75.5471887780 0.000000 %  @IN
O 0.000000 0.000000 0.000000
H 0.740000 0.000000 0.000000
2
5 -75.5570361578 0.000000 %  @IN
O 0.000000 0.000000 0.000000
H 0.750000 0.000000 0.000000
2
6 -75.5660692582 0.000000 %  @IN
O 0.000000 0.000000 0.000000
H 0.760000 0.000000 0.000000
2
7 -75.5743410511 0.000000 %  @IN
O 0.000000 0.000000 0.000000
H 0.770000 0.000000 0.000000
2
8 -75.5819009627 0.000000 %  @IN
O 0.000000 0.000000 0.000000
H 0.780000 0.000000 0.000000
2
9 -75.5887951281 0.000000 %  @IN
O 0.000000 0.000000 0.000000
H 0.790000 0.000000 0.000000
2
10 -75.5950666271 0.000000 %  @IN
O 0.000000 0.000000 0.000000
H 0.800000 0.000000 0.000000
2
11 -75.6007557013 0.000000 %  @IN
O 0.000000 0.000000 0.000000
H 0.810000 0.000000 0.000000
2
12 -75.6058999548 0.000000 %  @IN
O 0.000000 0.000000 0.000000
H 0.820000 0.000000 0.000000
2
13 -75.6105345403 0.000000 %  @IN
O 0.000000 0.000000 0.000000
H 0.830000 0.000000 0.000000
2
14 -75.6146923293 0.000000 %  @IN
O 0.000000 0.000000 0.000000
H 0.840000 0.000000 0.000000
2
15 -75.6184040715 0.000000 %  @IN
O 0.000000 0.000000 0.000000
H 0.850000 0.000000 0.000000
2
16 -75.6216985400 0.000000 %  @IN
O 0.000000 0.000000 0.000000
H 0.860000 0.000000 0.000000
2
17 -75.6246026684 0.000000 %  @IN
O 0.000000 0.000000 0.000000
H 0.870000 0.000000 0.000000
2
18 -75.6271416718 0.000000 %  @IN
O 0.000000 0.000000 0.000000
H 0.880000 0.000000 0.000000
2
19 -75.6293391661 0.000000 %  @IN
O 0.000000 0.000000 0.000000
H 0.890000 0.000000 0.000000
2
20 -75.6312172728 0.000000 %  @IN
O 0.000000 0.000000 0.000000
H 0.900000 0.000000 0.000000
2
21 -75.6327967180 0.000000 %  @IN
O 0.000000 0.000000 0.000000
H 0.910000 0.000000 0.000000
2
22 -75.6340969243 0.000000 %  @IN
O 0.000000 0.000000 0.000000
H 0.920000 0.000000 0.000000
2
23 -75.6351360946 0.000000 %  @IN
O 0.000000 0.000000 0.000000
H 0.930000 0.000000 0.000000
2
24 -75.6359312914 0.000000 %  @IN
O 0.000000 0.000000 0.000000
H 0.940000 0.000000 0.000000
2
25 -75.6364985093 0.000000 %  @IN
O 0.000000 0.000000 0.000000
H 0.950000 0.000000 0.000000
2
26 -75.6368527424 0.000000 %  @IN
O 0.000000 0.000000 0.000000
H 0.960000 0.000000 0.000000
2
27 -75.6370080477 0.000000 %  @IN
O 0.000000 0.000000 0.000000
H 0.970000 0.000000 0.000000
2
28 -75.6369776028 0.000000 %  @IN
O 0.000000 0.000000 0.000000
H 0.980000 0.000000 0.000000
2
29 -75.6367737611 0.000000 %  @IN
O 0.000000 0.000000 0.000000
H 0.990000 0.000000 0.000000
2
30 -75.6364081022 0.000000 %  @IN
O 0.000000 0.000000 0.000000
H 1.000000 0.000000 0.000000
2
31 -75.6358914794 0.000000 %  @IN
O 0.000000 0.000000 0.000000
H 1.010000 0.000000 0.000000
2
32 -75.6352340643 0.000000 %  @IN
O 0.000000 0.000000 0.000000
H 1.020000 0.000000 0.000000
2
33 -75.6344453882 0.000000 %  @IN
O 0.000000 0.000000 0.000000
H 1.030000 0.000000 0.000000
2
34 -75.6335343812 0.000000 %  @IN
O 0.000000 0.000000 0.000000
H 1.040000 0.000000 0.000000
2
35 -75.6325094088 0.000000 %  @IN
O 0.000000 0.000000 0.000000
H 1.050000 0.000000 0.000000
2
36 -75.6313783062 0.000000 %  @IN
O 0.000000 0.000000 0.000000
H 1.060000 0.000000 0.000000
2
37 -75.6301484111 0.000000 %  @IN
O 0.000000 0.000000 0.000000
H 1.070000 0.000000 0.000000
2
38 -75.6288265942 0.000000 %  @IN
O 0.000000 0.000000 0.000000
H 1.080000 0.000000 0.000000
2
39 -75.6274192876 0.000000 %  @IN
O 0.000000 0.000000 0.000000
H 1.090000 0.000000 0.000000
2
40 -75.6259325128 0.000000 %  @IN
O 0.000000 0.000000 0.000000
H 1.100000 0.000000 0.000000
2
41 -75.6243719060 0.000000 %  @IN
O 0.000000 0.000000 0.000000
H 1.110000 0.000000 0.000000
2
42 -75.6227427426 0.000000 %  @IN
O 0.000000 0.000000 0.000000
H 1.120000 0.000000 0.000000
2
43 -75.6210499601 0.000000 %  @IN
O 0.000000 0.000000 0.000000
H 1.130000 0.000000 0.000000
2
44 -75.6192981804 0.000000 %  @IN
O 0.000000 0.000000 0.000000
H 1.140000 0.000000 0.000000
2
45 -75.6174917299 0.000000 %  @IN
O 0.000000 0.000000 0.000000
H 1.150000 0.000000 0.000000
2
46 -75.6156346593 0.000000 %  @IN
O 0.000000 0.000000 0.000000
H 1.160000 0.000000 0.000000
2
47 -75.6137307619 0.000000 %  @IN
O 0.000000 0.000000 0.000000
H 1.170000 0.000000 0.000000
2
48 -75.6117835911 0.000000 %  @IN
O 0.000000 0.000000 0.000000
H 1.180000 0.000000 0.000000
2
49 -75.6097964770 0.000000 %  @IN
O 0.000000 0.000000 0.000000
H 1.190000 0.000000 0.000000
2
50 -75.6077725417 0.000000 %  @IN
O 0.000000 0.000000 0.000000
H 1.200000 0.000000 0.000000
2
51 -75.6057147139 0.000000 %  @IN
O 0.000000 0.000000 0.000000
H 1.210000 0.000000 0.000000
2
52 -75.6036257426 0.000000 %  @IN
O 0.000000 0.000000 0.000000
H 1.220000 0.000000 0.000000
2
53 -75.6015082104 0.000000 %  @IN
O 0.000000 0.000000 0.000000
H 1.230000 0.000000 0.000000
2
54 -75.5993645450 0.000000 %  @IN
O 0.000000 0.000000 0.000000
H 1.240000 0.000000 0.000000
2
55 -75.5971970307 0.000000 %  @IN
O 0.000000 0.000000 0.000000
H 1.250000 0.000000 0.000000
2
56 -75.5950078193 0.000000 %  @IN
O 0.000000 0.000000 0.000000
H 1.260000 0.000000 0.000000
2
57 -75.5927989393 0.000000 %  @IN
O 0.000000 0.000000 0.000000
H 1.270000 0.000000 0.000000
2
58 -75.5905723055 0.000000 %  @IN
O 0.000000 0.000000 0.000000
H 1.280000 0.000000 0.000000
2
59 -75.5883297273 0.000000 %  @IN
O 0.000000 0.000000 0.000000
H 1.290000 0.000000 0.000000
2
60 -75.5860729168 0.000000 %  @IN
O 0.000000 0.000000 0.000000
H 1.300000 0.000000 0.000000
2
61 -75.5838034953 0.000000 %  @IN
O 0.000000 0.000000 0.000000
H 1.310000 0.000000 0.000000
2
62 -75.5815230009 0.000000 %  @IN
O 0.000000 0.000000 0.000000
H 1.320000 0.000000 0.000000
2
63 -75.5792328938 0.000000 %  @IN
O 0.000000 0.000000 0.000000
H 1.330000 0.000000 0.000000
2
64 -75.5769345626 0.000000 %  @IN
O 0.000000 0.000000 0.000000
H 1.340000 0.000000 0.000000
2
65 -75.5746293285 0.000000 %  @IN
O 0.000000 0.000000 0.000000
H 1.350000 0.000000 0.000000
2
66 -75.5723184510 0.000000 %  @IN
O 0.000000 0.000000 0.000000
H 1.360000 0.000000 0.000000
2
67 -75.5700031311 0.000000 %  @IN
O 0.000000 0.000000 0.000000
H 1.370000 0.000000 0.000000
2
68 -75.5676845158 0.000000 %  @IN
O 0.000000 0.000000 0.000000
H 1.380000 0.000000 0.000000
2
69 -75.5653637012 0.000000 %  @IN
O 0.000000 0.000000 0.000000
H 1.390000 0.000000 0.000000
2
70 -75.5630417358 0.000000 %  @IN
O 0.000000 0.000000 0.000000
H 1.400000 0.000000 0.000000
2
71 -75.5607196229 0.000000 %  @IN
O 0.000000 0.000000 0.000000
H 1.410000 0.000000 0.000000
2
72 -75.5583983236 0.000000 %  @IN
O 0.000000 0.000000 0.000000
H 1.420000 0.000000 0.000000
2
73 -75.5560787586 0.000000 %  @IN
O 0.000000 0.000000 0.000000
H 1.430000 0.000000 0.000000
2
74 -75.5537618104 0.000000 %  @IN
O 0.000000 0.000000 0.000000
H 1.440000 0.000000 0.000000
2
75 -75.5514483250 0.000000 %  @IN
O 0.000000 0.000000 0.000000
H 1.450000 0.000000 0.000000
2
76 -75.5491391128 0.000000 %  @IN
O 0.000000 0.000000 0.000000
H 1.460000 0.000000 0.000000
2
77 -75.5468349530 0.000000 %  @IN
O 0.000000 0.000000 0.000000
H 1.470000 0.000000 0.000000
2
78 -75.5445365902 0.000000 %  @IN
O 0.000000 0.000000 0.000000
H 1.480000 0.000000 0.000000
2
79 -75.5422447388 0.000000 %  @IN
O 0.000000 0.000000 0.000000
H 1.490000 0.000000 0.000000
