5
0 -151.9287054558 0.000000 %  @IN
O 0.000000 0.000000 0.000000
O 2.457000 0.000000 0.000000
H 1.529000 0.000745 0.000000
H -0.220290 0.608512 -0.718523
H 2.677482 0.607714 0.719138
5
1 -151.9303910166 0.000000 %  @IN
O 0.000000 0.000000 0.000000
O 2.457000 0.000000 0.000000
H 1.519000 0.000753 0.000000
H -0.220295 0.608510 -0.718523
H 2.677482 0.607714 0.719138
5
2 -151.9318837484 0.000000 %  @IN
O 0.000000 0.000000 0.000000
O 2.457000 0.000000 0.000000
H 1.509000 0.000761 0.000000
H -0.220301 0.608508 -0.718523
H 2.677482 0.607714 0.719138
5
3 -151.9331998763 0.000000 %  @IN
O 0.000000 0.000000 0.000000
O 2.457000 0.000000 0.000000
H 1.499000 0.000769 0.000000
H -0.220306 0.608506 -0.718523
H 2.677482 0.607714 0.719138
5
4 -151.9343546601 0.000000 %  @IN
O 0.000000 0.000000 0.000000
O 2.457000 0.000000 0.000000
H 1.489000 0.000777 0.000000
H -0.220311 0.608504 -0.718523
H 2.677482 0.607714 0.719138
5
5 -151.9353624309 0.000000 %  @IN
O 0.000000 0.000000 0.000000
O 2.457000 0.000000 0.000000
H 1.479000 0.000785 0.000000
H -0.220317 0.608502 -0.718523
H 2.677482 0.607714 0.719138
5
6 -151.9362366274 0.000000 %  @IN
O 0.000000 0.000000 0.000000
O 2.457000 0.000000 0.000000
H 1.469000 0.000793 0.000000
H -0.220322 0.608500 -0.718523
H 2.677482 0.607714 0.719138
5
7 -151.9369898717 0.000000 %  @IN
O 0.000000 0.000000 0.000000
O 2.457000 0.000000 0.000000
H 1.459000 0.000801 0.000000
H -0.220328 0.608498 -0.718523
H 2.677482 0.607714 0.719138
5
8 -151.9376339789 0.000000 %  @IN
O 0.000000 0.000000 0.000000
O 2.457000 0.000000 0.000000
H 1.449000 0.000809 0.000000
H -0.220334 0.608496 -0.718523
H 2.677482 0.607714 0.719138
5
9 -151.9381800100 0.000000 %  @IN
O 0.000000 0.000000 0.000000
O 2.457000 0.000000 0.000000
H 1.439000 0.000817 0.000000
H -0.220339 0.608494 -0.718523
H 2.677482 0.607714 0.719138
5
10 -151.9386383193 0.000000 %  @IN
O 0.000000 0.000000 0.000000
O 2.457000 0.000000 0.000000
H 1.429000 0.000825 0.000000
H -0.220345 0.608492 -0.718523
H 2.677482 0.607714 0.719138
5
11 -151.9390185616 0.000000 %  @IN
O 0.000000 0.000000 0.000000
O 2.457000 0.000000 0.000000
H 1.419000 0.000833 0.000000
H -0.220351 0.608490 -0.718523
H 2.677482 0.607714 0.719138
5
12 -151.9393297377 0.000000 %  @IN
O 0.000000 0.000000 0.000000
O 2.457000 0.000000 0.000000
H 1.409000 0.000841 0.000000
H -0.220357 0.608487 -0.718523
H 2.677482 0.607714 0.719138
5
13 -151.9395802278 0.000000 %  @IN
O 0.000000 0.000000 0.000000
O 2.457000 0.000000 0.000000
H 1.399000 0.000849 0.000000
H -0.220363 0.608485 -0.718523
H 2.677482 0.607714 0.719138
5
14 -151.9397778036 0.000000 %  @IN
O 0.000000 0.000000 0.000000
O 2.457000 0.000000 0.000000
H 1.389000 0.000857 0.000000
H -0.220369 0.608483 -0.718523
H 2.677482 0.607714 0.719138
5
15 -151.9399296660 0.000000 %  @IN
O 0.000000 0.000000 0.000000
O 2.457000 0.000000 0.000000
H 1.379000 0.000865 0.000000
H -0.220376 0.608481 -0.718523
H 2.677482 0.607714 0.719138
5
16 -151.9400424489 0.000000 %  @IN
O 0.000000 0.000000 0.000000
O 2.457000 0.000000 0.000000
H 1.369000 0.000874 0.000000
H -0.220382 0.608478 -0.718523
H 2.677482 0.607714 0.719138
5
17 -151.9401222759 0.000000 %  @IN
O 0.000000 0.000000 0.000000
O 2.457000 0.000000 0.000000
H 1.359000 0.000882 0.000000
H -0.220388 0.608476 -0.718523
H 2.677482 0.607714 0.719138
5
18 -151.9401747464 0.000000 %  @IN
O 0.000000 0.000000 0.000000
O 2.457000 0.000000 0.000000
H 1.349000 0.000890 0.000000
H -0.220395 0.608474 -0.718523
H 2.677482 0.607714 0.719138
5
19 -151.9402049641 0.000000 %  @IN
O 0.000000 0.000000 0.000000
O 2.457000 0.000000 0.000000
H 1.339000 0.000898 0.000000
H -0.220402 0.608471 -0.718523
H 2.677482 0.607714 0.719138
5
20 -151.9402175637 0.000000 %  @IN
O 0.000000 0.000000 0.000000
O 2.457000 0.000000 0.000000
H 1.329000 0.000906 0.000000
H -0.220408 0.608469 -0.718523
H 2.677482 0.607714 0.719138
5
21 -151.9402167211 0.000000 %  @IN
O 0.000000 0.000000 0.000000
O 2.457000 0.000000 0.000000
H 1.319000 0.000914 0.000000
H -0.220415 0.608466 -0.718523
H 2.677482 0.607714 0.719138
5
22 -151.9402061682 0.000000 %  @IN
O 0.000000 0.000000 0.000000
O 2.457000 0.000000 0.000000
H 1.309000 0.000922 0.000000
H -0.220422 0.608464 -0.718523
H 2.677482 0.607714 0.719138
5
23 -151.9401892038 0.000000 %  @IN
O 0.000000 0.000000 0.000000
O 2.457000 0.000000 0.000000
H 1.299000 0.000930 0.000000
H -0.220429 0.608461 -0.718523
H 2.677482 0.607714 0.719138
5
24 -151.9401687152 0.000000 %  @IN
O 0.000000 0.000000 0.000000
O 2.457000 0.000000 0.000000
H 1.289000 0.000938 0.000000
H -0.220436 0.608459 -0.718523
H 2.677482 0.607714 0.719138
5
25 -151.9401471800 0.000000 %  @IN
O 0.000000 0.000000 0.000000
O 2.457000 0.000000 0.000000
H 1.279000 0.000946 0.000000
H -0.220444 0.608456 -0.718523
H 2.677482 0.607714 0.719138
5
26 -151.9401266800 0.000000 %  @IN
O 0.000000 0.000000 0.000000
O 2.457000 0.000000 0.000000
H 1.269000 0.000954 0.000000
H -0.220451 0.608453 -0.718523
H 2.677482 0.607714 0.719138
5
27 -151.9401089142 0.000000 %  @IN
O 0.000000 0.000000 0.000000
O 2.457000 0.000000 0.000000
H 1.259000 0.000962 0.000000
H -0.220459 0.608451 -0.718523
H 2.677482 0.607714 0.719138
5
28 -151.9400951943 0.000000 %  @IN
O 0.000000 0.000000 0.000000
O 2.457000 0.000000 0.000000
H 1.249000 0.000970 0.000000
H -0.220466 0.608448 -0.718523
H 2.677482 0.607714 0.719138
5
29 -151.9400864636 0.000000 %  @IN
O 0.000000 0.000000 0.000000
O 2.457000 0.000000 0.000000
H 1.239000 0.000978 0.000000
H -0.220474 0.608445 -0.718523
H 2.677482 0.607714 0.719138
5
30 -151.9400832916 0.000000 %  @IN
O 0.000000 0.000000 0.000000
O 2.457000 0.000000 0.000000
H 1.229000 0.000986 0.000000
H -0.220482 0.608442 -0.718523
H 2.677482 0.607714 0.719138
5
31 -151.9400858801 0.000000 %  @IN
O 0.000000 0.000000 0.000000
O 2.457000 0.000000 0.000000
H 1.219000 0.000994 0.000000
H -0.220490 0.608439 -0.718523
H 2.677482 0.607714 0.719138
5
32 -151.9400940638 0.000000 %  @IN
O 0.000000 0.000000 0.000000
O 2.457000 0.000000 0.000000
H 1.209000 0.001002 0.000000
H -0.220498 0.608436 -0.718523
H 2.677482 0.607714 0.719138
5
33 -151.9401073092 0.000000 %  @IN
O 0.000000 0.000000 0.000000
O 2.457000 0.000000 0.000000
H 1.199000 0.001010 0.000000
H -0.220506 0.608433 -0.718523
H 2.677482 0.607714 0.719138
5
34 -151.9401247120 0.000000 %  @IN
O 0.000000 0.000000 0.000000
O 2.457000 0.000000 0.000000
H 1.189000 0.001018 0.000000
H -0.220515 0.608430 -0.718523
H 2.677482 0.607714 0.719138
5
35 -151.9401449948 0.000000 %  @IN
O 0.000000 0.000000 0.000000
O 2.457000 0.000000 0.000000
H 1.179000 0.001026 0.000000
H -0.220523 0.608427 -0.718523
H 2.677482 0.607714 0.719138
5
36 -151.9401664990 0.000000 %  @IN
O 0.000000 0.000000 0.000000
O 2.457000 0.000000 0.000000
H 1.169000 0.001034 0.000000
H -0.220532 0.608424 -0.718523
H 2.677482 0.607714 0.719138
5
37 -151.9401871808 0.000000 %  @IN
O 0.000000 0.000000 0.000000
O 2.457000 0.000000 0.000000
H 1.159000 0.001042 0.000000
H -0.220541 0.608421 -0.718523
H 2.677482 0.607714 0.719138
5
38 -151.9402046011 0.000000 %  @IN
O 0.000000 0.000000 0.000000
O 2.457000 0.000000 0.000000
H 1.149000 0.001050 0.000000
H -0.220550 0.608418 -0.718523
H 2.677482 0.607714 0.719138
5
39 -151.9402159169 0.000000 %  @IN
O 0.000000 0.000000 0.000000
O 2.457000 0.000000 0.000000
H 1.139000 0.001058 0.000000
H -0.220559 0.608414 -0.718523
H 2.677482 0.607714 0.719138
5
40 -151.9402178672 0.000000 %  @IN
O 0.000000 0.000000 0.000000
O 2.457000 0.000000 0.000000
H 1.129000 0.001066 0.000000
H -0.220568 0.608411 -0.718523
H 2.677482 0.607714 0.719138
5
41 -151.9402067645 0.000000 %  @IN
O 0.000000 0.000000 0.000000
O 2.457000 0.000000 0.000000
H 1.119000 0.001074 0.000000
H -0.220578 0.608407 -0.718523
H 2.677482 0.607714 0.719138
5
42 -151.9401784795 0.000000 %  @IN
O 0.000000 0.000000 0.000000
O 2.457000 0.000000 0.000000
H 1.109000 0.001082 0.000000
H -0.220587 0.608404 -0.718523
H 2.677482 0.607714 0.719138
5
43 -151.9401284250 0.000000 %  @IN
O 0.000000 0.000000 0.000000
O 2.457000 0.000000 0.000000
H 1.099000 0.001090 0.000000
H -0.220597 0.608400 -0.718523
H 2.677482 0.607714 0.719138
5
44 -151.9400515391 0.000000 %  @IN
O 0.000000 0.000000 0.000000
O 2.457000 0.000000 0.000000
H 1.089000 0.001098 0.000000
H -0.220607 0.608397 -0.718523
H 2.677482 0.607714 0.719138
5
45 -151.9399422725 0.000000 %  @IN
O 0.000000 0.000000 0.000000
O 2.457000 0.000000 0.000000
H 1.079000 0.001106 0.000000
H -0.220618 0.608393 -0.718523
H 2.677482 0.607714 0.719138
5
46 -151.9397945665 0.000000 %  @IN
O 0.000000 0.000000 0.000000
O 2.457000 0.000000 0.000000
H 1.069000 0.001114 0.000000
H -0.220628 0.608389 -0.718523
H 2.677482 0.607714 0.719138
5
47 -151.9396018271 0.000000 %  @IN
O 0.000000 0.000000 0.000000
O 2.457000 0.000000 0.000000
H 1.059000 0.001122 0.000000
H -0.220639 0.608385 -0.718523
H 2.677482 0.607714 0.719138
5
48 -151.9393569166 0.000000 %  @IN
O 0.000000 0.000000 0.000000
O 2.457000 0.000000 0.000000
H 1.049000 0.001130 0.000000
H -0.220649 0.608381 -0.718523
H 2.677482 0.607714 0.719138
5
49 -151.9390521157 0.000000 %  @IN
O 0.000000 0.000000 0.000000
O 2.457000 0.000000 0.000000
H 1.039000 0.001138 0.000000
H -0.220660 0.608377 -0.718523
H 2.677482 0.607714 0.719138
5
50 -151.9386791101 0.000000 %  @IN
O 0.000000 0.000000 0.000000
O 2.457000 0.000000 0.000000
H 1.029000 0.001146 0.000000
H -0.220672 0.608373 -0.718523
H 2.677482 0.607714 0.719138
5
51 -151.9382289615 0.000000 %  @IN
O 0.000000 0.000000 0.000000
O 2.457000 0.000000 0.000000
H 1.019000 0.001155 0.000000
H -0.220683 0.608369 -0.718523
H 2.677482 0.607714 0.719138
5
52 -151.9376920791 0.000000 %  @IN
O 0.000000 0.000000 0.000000
O 2.457000 0.000000 0.000000
H 1.009000 0.001163 0.000000
H -0.220695 0.608365 -0.718523
H 2.677482 0.607714 0.719138
5
53 -151.9370581865 0.000000 %  @IN
O 0.000000 0.000000 0.000000
O 2.457000 0.000000 0.000000
H 0.999000 0.001171 0.000000
H -0.220707 0.608361 -0.718523
H 2.677482 0.607714 0.719138
5
54 -151.9363162956 0.000000 %  @IN
O 0.000000 0.000000 0.000000
O 2.457000 0.000000 0.000000
H 0.989000 0.001179 0.000000
H -0.220719 0.608356 -0.718523
H 2.677482 0.607714 0.719138
5
55 -151.9354546562 0.000000 %  @IN
O 0.000000 0.000000 0.000000
O 2.457000 0.000000 0.000000
H 0.979000 0.001187 0.000000
H -0.220731 0.608352 -0.718523
H 2.677482 0.607714 0.719138
5
56 -151.9344607426 0.000000 %  @IN
O 0.000000 0.000000 0.000000
O 2.457000 0.000000 0.000000
H 0.969000 0.001195 0.000000
H -0.220744 0.608347 -0.718523
H 2.677482 0.607714 0.719138
5
57 -151.9333211855 0.000000 %  @IN
O 0.000000 0.000000 0.000000
O 2.457000 0.000000 0.000000
H 0.959000 0.001203 0.000000
H -0.220757 0.608343 -0.718523
H 2.677482 0.607714 0.719138
5
58 -151.9320217570 0.000000 %  @IN
O 0.000000 0.000000 0.000000
O 2.457000 0.000000 0.000000
H 0.949000 0.001211 0.000000
H -0.220770 0.608338 -0.718523
H 2.677482 0.607714 0.719138
5
59 -151.9305472934 0.000000 %  @IN
O 0.000000 0.000000 0.000000
O 2.457000 0.000000 0.000000
H 0.939000 0.001219 0.000000
H -0.220783 0.608333 -0.718523
H 2.677482 0.607714 0.719138
5
60 -151.9288816583 0.000000 %  @IN
O 0.000000 0.000000 0.000000
O 2.457000 0.000000 0.000000
H 0.929000 0.001227 0.000000
H -0.220797 0.608328 -0.718523
H 2.677482 0.607714 0.719138
