5
0 -151.8833155126 0.000000 %  @IN
O 0.000000 0.000000 0.000000
O 2.800000 0.000000 0.000000
H 2.000000 0.000642 0.000000
H -0.220189 0.608548 -0.718523
H 3.020482 0.607714 0.719138
5
1 -151.8893931106 0.000000 %  @IN
O 0.000000 0.000000 0.000000
O 2.800000 0.000000 0.000000
H 1.990000 0.000650 0.000000
H -0.220193 0.608547 -0.718523
H 3.020482 0.607714 0.719138
5
2 -151.8949403659 0.000000 %  @IN
O 0.000000 0.000000 0.000000
O 2.800000 0.000000 0.000000
H 1.980000 0.000658 0.000000
H -0.220196 0.608546 -0.718523
H 3.020482 0.607714 0.719138
5
3 -151.8999928045 0.000000 %  @IN
O 0.000000 0.000000 0.000000
O 2.800000 0.000000 0.000000
H 1.970000 0.000666 0.000000
H -0.220199 0.608544 -0.718523
H 3.020482 0.607714 0.719138
5
4 -151.9045837359 0.000000 %  @IN
O 0.000000 0.000000 0.000000
O 2.800000 0.000000 0.000000
H 1.960000 0.000674 0.000000
H -0.220203 0.608543 -0.718523
H 3.020482 0.607714 0.719138
5
5 -151.9087443719 0.000000 %  @IN
O 0.000000 0.000000 0.000000
O 2.800000 0.000000 0.000000
H 1.950000 0.000682 0.000000
H -0.220207 0.608542 -0.718523
H 3.020482 0.607714 0.719138
5
6 -151.9125040010 0.000000 %  @IN
O 0.000000 0.000000 0.000000
O 2.800000 0.000000 0.000000
H 1.940000 0.000690 0.000000
H -0.220210 0.608541 -0.718523
H 3.020482 0.607714 0.719138
5
7 -151.9158901228 0.000000 %  @IN
O 0.000000 0.000000 0.000000
O 2.800000 0.000000 0.000000
H 1.930000 0.000698 0.000000
H -0.220214 0.608539 -0.718523
H 3.020482 0.607714 0.719138
5
8 -151.9189285649 0.000000 %  @IN
O 0.000000 0.000000 0.000000
O 2.800000 0.000000 0.000000
H 1.920000 0.000707 0.000000
H -0.220218 0.608538 -0.718523
H 3.020482 0.607714 0.719138
5
9 -151.9216435999 0.000000 %  @IN
O 0.000000 0.000000 0.000000
O 2.800000 0.000000 0.000000
H 1.910000 0.000715 0.000000
H -0.220221 0.608537 -0.718523
H 3.020482 0.607714 0.719138
5
10 -151.9240580399 0.000000 %  @IN
O 0.000000 0.000000 0.000000
O 2.800000 0.000000 0.000000
H 1.900000 0.000723 0.000000
H -0.220225 0.608535 -0.718523
H 3.020482 0.607714 0.719138
5
11 -151.9261933506 0.000000 %  @IN
O 0.000000 0.000000 0.000000
O 2.800000 0.000000 0.000000
H 1.890000 0.000731 0.000000
H -0.220229 0.608534 -0.718523
H 3.020482 0.607714 0.719138
5
12 -151.9280697174 0.000000 %  @IN
O 0.000000 0.000000 0.000000
O 2.800000 0.000000 0.000000
H 1.880000 0.000739 0.000000
H -0.220233 0.608532 -0.718523
H 3.020482 0.607714 0.719138
5
13 -151.9297061560 0.000000 %  @IN
O 0.000000 0.000000 0.000000
O 2.800000 0.000000 0.000000
H 1.870000 0.000747 0.000000
H -0.220237 0.608531 -0.718523
H 3.020482 0.607714 0.719138
5
14 -151.9311205577 0.000000 %  @IN
O 0.000000 0.000000 0.000000
O 2.800000 0.000000 0.000000
H 1.860000 0.000755 0.000000
H -0.220241 0.608530 -0.718523
H 3.020482 0.607714 0.719138
5
15 -151.9323297731 0.000000 %  @IN
O 0.000000 0.000000 0.000000
O 2.800000 0.000000 0.000000
H 1.850000 0.000763 0.000000
H -0.220245 0.608528 -0.718523
H 3.020482 0.607714 0.719138
5
16 -151.9333496909 0.000000 %  @IN
O 0.000000 0.000000 0.000000
O 2.800000 0.000000 0.000000
H 1.840000 0.000771 0.000000
H -0.220249 0.608527 -0.718523
H 3.020482 0.607714 0.719138
5
17 -151.9341952621 0.000000 %  @IN
O 0.000000 0.000000 0.000000
O 2.800000 0.000000 0.000000
H 1.830000 0.000779 0.000000
H -0.220253 0.608525 -0.718523
H 3.020482 0.607714 0.719138
5
18 -151.9348805947 0.000000 %  @IN
O 0.000000 0.000000 0.000000
O 2.800000 0.000000 0.000000
H 1.820000 0.000787 0.000000
H -0.220257 0.608524 -0.718523
H 3.020482 0.607714 0.719138
5
19 -151.9354189647 0.000000 %  @IN
O 0.000000 0.000000 0.000000
O 2.800000 0.000000 0.000000
H 1.810000 0.000795 0.000000
H -0.220261 0.608522 -0.718523
H 3.020482 0.607714 0.719138
5
20 -151.9358229020 0.000000 %  @IN
O 0.000000 0.000000 0.000000
O 2.800000 0.000000 0.000000
H 1.800000 0.000803 0.000000
H -0.220265 0.608521 -0.718523
H 3.020482 0.607714 0.719138
5
21 -151.9361041954 0.000000 %  @IN
O 0.000000 0.000000 0.000000
O 2.800000 0.000000 0.000000
H 1.790000 0.000811 0.000000
H -0.220269 0.608519 -0.718523
H 3.020482 0.607714 0.719138
5
22 -151.9362739738 0.000000 %  @IN
O 0.000000 0.000000 0.000000
O 2.800000 0.000000 0.000000
H 1.780000 0.000819 0.000000
H -0.220274 0.608518 -0.718523
H 3.020482 0.607714 0.719138
5
23 -151.9363426955 0.000000 %  @IN
O 0.000000 0.000000 0.000000
O 2.800000 0.000000 0.000000
H 1.770000 0.000827 0.000000
H -0.220278 0.608516 -0.718523
H 3.020482 0.607714 0.719138
5
24 -151.9363202317 0.000000 %  @IN
O 0.000000 0.000000 0.000000
O 2.800000 0.000000 0.000000
H 1.760000 0.000835 0.000000
H -0.220282 0.608514 -0.718523
H 3.020482 0.607714 0.719138
5
25 -151.9362158766 0.000000 %  @IN
O 0.000000 0.000000 0.000000
O 2.800000 0.000000 0.000000
H 1.750000 0.000843 0.000000
H -0.220287 0.608513 -0.718523
H 3.020482 0.607714 0.719138
5
26 -151.9360383581 0.000000 %  @IN
O 0.000000 0.000000 0.000000
O 2.800000 0.000000 0.000000
H 1.740000 0.000851 0.000000
H -0.220291 0.608511 -0.718523
H 3.020482 0.607714 0.719138
5
27 -151.9357959136 0.000000 %  @IN
O 0.000000 0.000000 0.000000
O 2.800000 0.000000 0.000000
H 1.730000 0.000859 0.000000
H -0.220296 0.608510 -0.718523
H 3.020482 0.607714 0.719138
5
28 -151.9354962638 0.000000 %  @IN
O 0.000000 0.000000 0.000000
O 2.800000 0.000000 0.000000
H 1.720000 0.000867 0.000000
H -0.220300 0.608508 -0.718523
H 3.020482 0.607714 0.719138
5
29 -151.9351466843 0.000000 %  @IN
O 0.000000 0.000000 0.000000
O 2.800000 0.000000 0.000000
H 1.710000 0.000875 0.000000
H -0.220305 0.608506 -0.718523
H 3.020482 0.607714 0.719138
5
30 -151.9347540040 0.000000 %  @IN
O 0.000000 0.000000 0.000000
O 2.800000 0.000000 0.000000
H 1.700000 0.000883 0.000000
H -0.220310 0.608505 -0.718523
H 3.020482 0.607714 0.719138
5
31 -151.9343246195 0.000000 %  @IN
O 0.000000 0.000000 0.000000
O 2.800000 0.000000 0.000000
H 1.690000 0.000891 0.000000
H -0.220315 0.608503 -0.718523
H 3.020482 0.607714 0.719138
5
32 -151.9338645414 0.000000 %  @IN
O 0.000000 0.000000 0.000000
O 2.800000 0.000000 0.000000
H 1.680000 0.000899 0.000000
H -0.220319 0.608501 -0.718523
H 3.020482 0.607714 0.719138
5
33 -151.9333793995 0.000000 %  @IN
O 0.000000 0.000000 0.000000
O 2.800000 0.000000 0.000000
H 1.670000 0.000907 0.000000
H -0.220324 0.608499 -0.718523
H 3.020482 0.607714 0.719138
5
34 -151.9328744597 0.000000 %  @IN
O 0.000000 0.000000 0.000000
O 2.800000 0.000000 0.000000
H 1.660000 0.000915 0.000000
H -0.220329 0.608497 -0.718523
H 3.020482 0.607714 0.719138
5
35 -151.9323546506 0.000000 %  @IN
O 0.000000 0.000000 0.000000
O 2.800000 0.000000 0.000000
H 1.650000 0.000923 0.000000
H -0.220334 0.608496 -0.718523
H 3.020482 0.607714 0.719138
5
36 -151.9318245613 0.000000 %  @IN
O 0.000000 0.000000 0.000000
O 2.800000 0.000000 0.000000
H 1.640000 0.000931 0.000000
H -0.220339 0.608494 -0.718523
H 3.020482 0.607714 0.719138
5
37 -151.9312884839 0.000000 %  @IN
O 0.000000 0.000000 0.000000
O 2.800000 0.000000 0.000000
H 1.630000 0.000939 0.000000
H -0.220344 0.608492 -0.718523
H 3.020482 0.607714 0.719138
5
38 -151.9307504108 0.000000 %  @IN
O 0.000000 0.000000 0.000000
O 2.800000 0.000000 0.000000
H 1.620000 0.000947 0.000000
H -0.220350 0.608490 -0.718523
H 3.020482 0.607714 0.719138
5
39 -151.9302140540 0.000000 %  @IN
O 0.000000 0.000000 0.000000
O 2.800000 0.000000 0.000000
H 1.610000 0.000955 0.000000
H -0.220355 0.608488 -0.718523
H 3.020482 0.607714 0.719138
5
40 -151.9296828583 0.000000 %  @IN
O 0.000000 0.000000 0.000000
O 2.800000 0.000000 0.000000
H 1.600000 0.000963 0.000000
H -0.220360 0.608486 -0.718523
H 3.020482 0.607714 0.719138
5
41 -151.9291600147 0.000000 %  @IN
O 0.000000 0.000000 0.000000
O 2.800000 0.000000 0.000000
H 1.590000 0.000971 0.000000
H -0.220365 0.608484 -0.718523
H 3.020482 0.607714 0.719138
5
42 -151.9286484720 0.000000 %  @IN
O 0.000000 0.000000 0.000000
O 2.800000 0.000000 0.000000
H 1.580000 0.000979 0.000000
H -0.220371 0.608482 -0.718523
H 3.020482 0.607714 0.719138
5
43 -151.9281509551 0.000000 %  @IN
O 0.000000 0.000000 0.000000
O 2.800000 0.000000 0.000000
H 1.570000 0.000988 0.000000
H -0.220376 0.608480 -0.718523
H 3.020482 0.607714 0.719138
5
44 -151.9276699589 0.000000 %  @IN
O 0.000000 0.000000 0.000000
O 2.800000 0.000000 0.000000
H 1.560000 0.000996 0.000000
H -0.220382 0.608478 -0.718523
H 3.020482 0.607714 0.719138
5
45 -151.9272077827 0.000000 %  @IN
O 0.000000 0.000000 0.000000
O 2.800000 0.000000 0.000000
H 1.550000 0.001004 0.000000
H -0.220388 0.608476 -0.718523
H 3.020482 0.607714 0.719138
5
46 -151.9267665278 0.000000 %  @IN
O 0.000000 0.000000 0.000000
O 2.800000 0.000000 0.000000
H 1.540000 0.001012 0.000000
H -0.220393 0.608474 -0.718523
H 3.020482 0.607714 0.719138
5
47 -151.9263481042 0.000000 %  @IN
O 0.000000 0.000000 0.000000
O 2.800000 0.000000 0.000000
H 1.530000 0.001020 0.000000
H -0.220399 0.608472 -0.718523
H 3.020482 0.607714 0.719138
5
48 -151.9259542497 0.000000 %  @IN
O 0.000000 0.000000 0.000000
O 2.800000 0.000000 0.000000
H 1.520000 0.001028 0.000000
H -0.220405 0.608470 -0.718523
H 3.020482 0.607714 0.719138
5
49 -151.9255865330 0.000000 %  @IN
O 0.000000 0.000000 0.000000
O 2.800000 0.000000 0.000000
H 1.510000 0.001036 0.000000
H -0.220411 0.608468 -0.718523
H 3.020482 0.607714 0.719138
5
50 -151.9252463636 0.000000 %  @IN
O 0.000000 0.000000 0.000000
O 2.800000 0.000000 0.000000
H 1.500000 0.001044 0.000000
H -0.220417 0.608466 -0.718523
H 3.020482 0.607714 0.719138
5
51 -151.9249349963 0.000000 %  @IN
O 0.000000 0.000000 0.000000
O 2.800000 0.000000 0.000000
H 1.490000 0.001052 0.000000
H -0.220423 0.608463 -0.718523
H 3.020482 0.607714 0.719138
5
52 -151.9246535533 0.000000 %  @IN
O 0.000000 0.000000 0.000000
O 2.800000 0.000000 0.000000
H 1.480000 0.001060 0.000000
H -0.220429 0.608461 -0.718523
H 3.020482 0.607714 0.719138
5
53 -151.9244030057 0.000000 %  @IN
O 0.000000 0.000000 0.000000
O 2.800000 0.000000 0.000000
H 1.470000 0.001068 0.000000
H -0.220436 0.608459 -0.718523
H 3.020482 0.607714 0.719138
5
54 -151.9241842071 0.000000 %  @IN
O 0.000000 0.000000 0.000000
O 2.800000 0.000000 0.000000
H 1.460000 0.001076 0.000000
H -0.220442 0.608457 -0.718523
H 3.020482 0.607714 0.719138
5
55 -151.9239978700 0.000000 %  @IN
O 0.000000 0.000000 0.000000
O 2.800000 0.000000 0.000000
H 1.450000 0.001084 0.000000
H -0.220449 0.608454 -0.718523
H 3.020482 0.607714 0.719138
5
56 -151.9238446115 0.000000 %  @IN
O 0.000000 0.000000 0.000000
O 2.800000 0.000000 0.000000
H 1.440000 0.001092 0.000000
H -0.220455 0.608452 -0.718523
H 3.020482 0.607714 0.719138
5
57 -151.9237249046 0.000000 %  @IN
O 0.000000 0.000000 0.000000
O 2.800000 0.000000 0.000000
H 1.430000 0.001100 0.000000
H -0.220462 0.608449 -0.718523
H 3.020482 0.607714 0.719138
5
58 -151.9236391389 0.000000 %  @IN
O 0.000000 0.000000 0.000000
O 2.800000 0.000000 0.000000
H 1.420000 0.001108 0.000000
H -0.220468 0.608447 -0.718523
H 3.020482 0.607714 0.719138
5
59 -151.9235875691 0.000000 %  @IN
O 0.000000 0.000000 0.000000
O 2.800000 0.000000 0.000000
H 1.410000 0.001116 0.000000
H -0.220475 0.608445 -0.718523
H 3.020482 0.607714 0.719138
5
60 -151.9235703538 0.000000 %  @IN
O 0.000000 0.000000 0.000000
O 2.800000 0.000000 0.000000
H 1.400000 0.001124 0.000000
H -0.220482 0.608442 -0.718523
H 3.020482 0.607714 0.719138
5
61 -151.9235875546 0.000000 %  @IN
O 0.000000 0.000000 0.000000
O 2.800000 0.000000 0.000000
H 1.390000 0.001132 0.000000
H -0.220489 0.608440 -0.718523
H 3.020482 0.607714 0.719138
5
62 -151.9236391101 0.000000 %  @IN
O 0.000000 0.000000 0.000000
O 2.800000 0.000000 0.000000
H 1.380000 0.001140 0.000000
H -0.220496 0.608437 -0.718523
H 3.020482 0.607714 0.719138
5
63 -151.9237248602 0.000000 %  @IN
O 0.000000 0.000000 0.000000
O 2.800000 0.000000 0.000000
H 1.370000 0.001148 0.000000
H -0.220504 0.608434 -0.718523
H 3.020482 0.607714 0.719138
5
64 -151.9238445516 0.000000 %  @IN
O 0.000000 0.000000 0.000000
O 2.800000 0.000000 0.000000
H 1.360000 0.001156 0.000000
H -0.220511 0.608432 -0.718523
H 3.020482 0.607714 0.719138
5
65 -151.9239977982 0.000000 %  @IN
O 0.000000 0.000000 0.000000
O 2.800000 0.000000 0.000000
H 1.350000 0.001164 0.000000
H -0.220518 0.608429 -0.718523
H 3.020482 0.607714 0.719138
5
66 -151.9241841102 0.000000 %  @IN
O 0.000000 0.000000 0.000000
O 2.800000 0.000000 0.000000
H 1.340000 0.001172 0.000000
H -0.220526 0.608426 -0.718523
H 3.020482 0.607714 0.719138
5
67 -151.9244028898 0.000000 %  @IN
O 0.000000 0.000000 0.000000
O 2.800000 0.000000 0.000000
H 1.330000 0.001180 0.000000
H -0.220534 0.608423 -0.718523
H 3.020482 0.607714 0.719138
5
68 -151.9246534222 0.000000 %  @IN
O 0.000000 0.000000 0.000000
O 2.800000 0.000000 0.000000
H 1.320000 0.001188 0.000000
H -0.220541 0.608421 -0.718523
H 3.020482 0.607714 0.719138
5
69 -151.9249348437 0.000000 %  @IN
O 0.000000 0.000000 0.000000
O 2.800000 0.000000 0.000000
H 1.310000 0.001196 0.000000
H -0.220549 0.608418 -0.718523
H 3.020482 0.607714 0.719138
5
70 -151.9252461843 0.000000 %  @IN
O 0.000000 0.000000 0.000000
O 2.800000 0.000000 0.000000
H 1.300000 0.001204 0.000000
H -0.220557 0.608415 -0.718523
H 3.020482 0.607714 0.719138
5
71 -151.9255863230 0.000000 %  @IN
O 0.000000 0.000000 0.000000
O 2.800000 0.000000 0.000000
H 1.290000 0.001212 0.000000
H -0.220566 0.608412 -0.718523
H 3.020482 0.607714 0.719138
5
72 -151.9259540134 0.000000 %  @IN
O 0.000000 0.000000 0.000000
O 2.800000 0.000000 0.000000
H 1.280000 0.001220 0.000000
H -0.220574 0.608409 -0.718523
H 3.020482 0.607714 0.719138
5
73 -151.9263478398 0.000000 %  @IN
O 0.000000 0.000000 0.000000
O 2.800000 0.000000 0.000000
H 1.270000 0.001228 0.000000
H -0.220582 0.608406 -0.718523
H 3.020482 0.607714 0.719138
5
74 -151.9267662272 0.000000 %  @IN
O 0.000000 0.000000 0.000000
O 2.800000 0.000000 0.000000
H 1.260000 0.001236 0.000000
H -0.220591 0.608403 -0.718523
H 3.020482 0.607714 0.719138
5
75 -151.9272074516 0.000000 %  @IN
O 0.000000 0.000000 0.000000
O 2.800000 0.000000 0.000000
H 1.250000 0.001244 0.000000
H -0.220599 0.608400 -0.718523
H 3.020482 0.607714 0.719138
5
76 -151.9276695384 0.000000 %  @IN
O 0.000000 0.000000 0.000000
O 2.800000 0.000000 0.000000
H 1.240001 0.001252 0.000000
H -0.220608 0.608396 -0.718523
H 3.020482 0.607714 0.719138
5
77 -151.9281504900 0.000000 %  @IN
O 0.000000 0.000000 0.000000
O 2.800000 0.000000 0.000000
H 1.230001 0.001260 0.000000
H -0.220617 0.608393 -0.718523
H 3.020482 0.607714 0.719138
5
78 -151.9286479666 0.000000 %  @IN
O 0.000000 0.000000 0.000000
O 2.800000 0.000000 0.000000
H 1.220001 0.001269 0.000000
H -0.220626 0.608390 -0.718523
H 3.020482 0.607714 0.719138
5
79 -151.9291594523 0.000000 %  @IN
O 0.000000 0.000000 0.000000
O 2.800000 0.000000 0.000000
H 1.210001 0.001277 0.000000
H -0.220636 0.608386 -0.718523
H 3.020482 0.607714 0.719138
5
80 -151.9296822448 0.000000 %  @IN
O 0.000000 0.000000 0.000000
O 2.800000 0.000000 0.000000
H 1.200001 0.001285 0.000000
H -0.220645 0.608383 -0.718523
H 3.020482 0.607714 0.719138
5
81 -151.9302133799 0.000000 %  @IN
O 0.000000 0.000000 0.000000
O 2.800000 0.000000 0.000000
H 1.190001 0.001293 0.000000
H -0.220655 0.608380 -0.718523
H 3.020482 0.607714 0.719138
5
82 -151.9307496797 0.000000 %  @IN
O 0.000000 0.000000 0.000000
O 2.800000 0.000000 0.000000
H 1.180001 0.001301 0.000000
H -0.220664 0.608376 -0.718523
H 3.020482 0.607714 0.719138
5
83 -151.9312876865 0.000000 %  @IN
O 0.000000 0.000000 0.000000
O 2.800000 0.000000 0.000000
H 1.170001 0.001309 0.000000
H -0.220674 0.608372 -0.718523
H 3.020482 0.607714 0.719138
5
84 -151.9318236952 0.000000 %  @IN
O 0.000000 0.000000 0.000000
O 2.800000 0.000000 0.000000
H 1.160001 0.001317 0.000000
H -0.220684 0.608369 -0.718523
H 3.020482 0.607714 0.719138
5
85 -151.9323537063 0.000000 %  @IN
O 0.000000 0.000000 0.000000
O 2.800000 0.000000 0.000000
H 1.150001 0.001325 0.000000
H -0.220695 0.608365 -0.718523
H 3.020482 0.607714 0.719138
5
86 -151.9328734458 0.000000 %  @IN
O 0.000000 0.000000 0.000000
O 2.800000 0.000000 0.000000
H 1.140001 0.001333 0.000000
H -0.220705 0.608361 -0.718523
H 3.020482 0.607714 0.719138
5
87 -151.9333783022 0.000000 %  @IN
O 0.000000 0.000000 0.000000
O 2.800000 0.000000 0.000000
H 1.130001 0.001341 0.000000
H -0.220716 0.608357 -0.718523
H 3.020482 0.607714 0.719138
5
88 -151.9338633639 0.000000 %  @IN
O 0.000000 0.000000 0.000000
O 2.800000 0.000000 0.000000
H 1.120001 0.001349 0.000000
H -0.220726 0.608354 -0.718523
H 3.020482 0.607714 0.719138
5
89 -151.9343233519 0.000000 %  @IN
O 0.000000 0.000000 0.000000
O 2.800000 0.000000 0.000000
H 1.110001 0.001357 0.000000
H -0.220737 0.608350 -0.718523
H 3.020482 0.607714 0.719138
5
90 -151.9347526392 0.000000 %  @IN
O 0.000000 0.000000 0.000000
O 2.800000 0.000000 0.000000
H 1.100001 0.001365 0.000000
H -0.220749 0.608345 -0.718523
H 3.020482 0.607714 0.719138
5
91 -151.9351452298 0.000000 %  @IN
O 0.000000 0.000000 0.000000
O 2.800000 0.000000 0.000000
H 1.090001 0.001373 0.000000
H -0.220760 0.608341 -0.718523
H 3.020482 0.607714 0.719138
5
92 -151.9354947059 0.000000 %  @IN
O 0.000000 0.000000 0.000000
O 2.800000 0.000000 0.000000
H 1.080001 0.001381 0.000000
H -0.220772 0.608337 -0.718523
H 3.020482 0.607714 0.719138
5
93 -151.9357942542 0.000000 %  @IN
O 0.000000 0.000000 0.000000
O 2.800000 0.000000 0.000000
H 1.070001 0.001389 0.000000
H -0.220783 0.608333 -0.718523
H 3.020482 0.607714 0.719138
5
94 -151.9360365902 0.000000 %  @IN
O 0.000000 0.000000 0.000000
O 2.800000 0.000000 0.000000
H 1.060001 0.001397 0.000000
H -0.220796 0.608328 -0.718523
H 3.020482 0.607714 0.719138
5
95 -151.9362139954 0.000000 %  @IN
O 0.000000 0.000000 0.000000
O 2.800000 0.000000 0.000000
H 1.050001 0.001405 0.000000
H -0.220808 0.608324 -0.718523
H 3.020482 0.607714 0.719138
5
96 -151.9363182435 0.000000 %  @IN
O 0.000000 0.000000 0.000000
O 2.800000 0.000000 0.000000
H 1.040001 0.001413 0.000000
H -0.220820 0.608319 -0.718523
H 3.020482 0.607714 0.719138
5
97 -151.9363405826 0.000000 %  @IN
O 0.000000 0.000000 0.000000
O 2.800000 0.000000 0.000000
H 1.030001 0.001421 0.000000
H -0.220833 0.608315 -0.718523
H 3.020482 0.607714 0.719138
5
98 -151.9362717362 0.000000 %  @IN
O 0.000000 0.000000 0.000000
O 2.800000 0.000000 0.000000
H 1.020001 0.001429 0.000000
H -0.220846 0.608310 -0.718523
H 3.020482 0.607714 0.719138
5
99 -151.9361018381 0.000000 %  @IN
O 0.000000 0.000000 0.000000
O 2.800000 0.000000 0.000000
H 1.010001 0.001437 0.000000
H -0.220859 0.608305 -0.718523
H 3.020482 0.607714 0.719138
5
100 -151.9358204101 0.000000 %  @IN
O 0.000000 0.000000 0.000000
O 2.800000 0.000000 0.000000
H 1.000001 0.001445 0.000000
H -0.220873 0.608300 -0.718523
H 3.020482 0.607714 0.719138
5
101 -151.9354163409 0.000000 %  @IN
O 0.000000 0.000000 0.000000
O 2.800000 0.000000 0.000000
H 0.990001 0.001453 0.000000
H -0.220887 0.608295 -0.718523
H 3.020482 0.607714 0.719138
5
102 -151.9348778322 0.000000 %  @IN
O 0.000000 0.000000 0.000000
O 2.800000 0.000000 0.000000
H 0.980001 0.001461 0.000000
H -0.220901 0.608290 -0.718523
H 3.020482 0.607714 0.719138
5
103 -151.9341923635 0.000000 %  @IN
O 0.000000 0.000000 0.000000
O 2.800000 0.000000 0.000000
H 0.970001 0.001469 0.000000
H -0.220915 0.608285 -0.718523
H 3.020482 0.607714 0.719138
5
104 -151.9333466447 0.000000 %  @IN
O 0.000000 0.000000 0.000000
O 2.800000 0.000000 0.000000
H 0.960001 0.001477 0.000000
H -0.220930 0.608280 -0.718523
H 3.020482 0.607714 0.719138
5
105 -151.9323265868 0.000000 %  @IN
O 0.000000 0.000000 0.000000
O 2.800000 0.000000 0.000000
H 0.950001 0.001485 0.000000
H -0.220945 0.608274 -0.718523
H 3.020482 0.607714 0.719138
5
106 -151.9311172203 0.000000 %  @IN
O 0.000000 0.000000 0.000000
O 2.800000 0.000000 0.000000
H 0.940001 0.001493 0.000000
H -0.220960 0.608269 -0.718523
H 3.020482 0.607714 0.719138
5
107 -151.9297026717 0.000000 %  @IN
O 0.000000 0.000000 0.000000
O 2.800000 0.000000 0.000000
H 0.930001 0.001501 0.000000
H -0.220976 0.608263 -0.718523
H 3.020482 0.607714 0.719138
5
108 -151.9280660852 0.000000 %  @IN
O 0.000000 0.000000 0.000000
O 2.800000 0.000000 0.000000
H 0.920001 0.001509 0.000000
H -0.220992 0.608257 -0.718523
H 3.020482 0.607714 0.719138
5
109 -151.9261895644 0.000000 %  @IN
O 0.000000 0.000000 0.000000
O 2.800000 0.000000 0.000000
H 0.910001 0.001517 0.000000
H -0.221008 0.608251 -0.718523
H 3.020482 0.607714 0.719138
5
110 -151.9240541008 0.000000 %  @IN
O 0.000000 0.000000 0.000000
O 2.800000 0.000000 0.000000
H 0.900001 0.001525 0.000000
H -0.221025 0.608245 -0.718523
H 3.020482 0.607714 0.719138
5
111 -151.9216395020 0.000000 %  @IN
O 0.000000 0.000000 0.000000
O 2.800000 0.000000 0.000000
H 0.890001 0.001533 0.000000
H -0.221042 0.608239 -0.718523
H 3.020482 0.607714 0.719138
5
112 -151.9189243094 0.000000 %  @IN
O 0.000000 0.000000 0.000000
O 2.800000 0.000000 0.000000
H 0.880001 0.001541 0.000000
H -0.221059 0.608233 -0.718523
H 3.020482 0.607714 0.719138
5
113 -151.9158857043 0.000000 %  @IN
O 0.000000 0.000000 0.000000
O 2.800000 0.000000 0.000000
H 0.870001 0.001550 0.000000
H -0.221077 0.608226 -0.718523
H 3.020482 0.607714 0.719138
5
114 -151.9124994243 0.000000 %  @IN
O 0.000000 0.000000 0.000000
O 2.800000 0.000000 0.000000
H 0.860001 0.001558 0.000000
H -0.221096 0.608219 -0.718523
H 3.020482 0.607714 0.719138
5
115 -151.9087396344 0.000000 %  @IN
O 0.000000 0.000000 0.000000
O 2.800000 0.000000 0.000000
H 0.850001 0.001566 0.000000
H -0.221114 0.608213 -0.718523
H 3.020482 0.607714 0.719138
5
116 -151.9045788469 0.000000 %  @IN
O 0.000000 0.000000 0.000000
O 2.800000 0.000000 0.000000
H 0.840001 0.001574 0.000000
H -0.221133 0.608206 -0.718523
H 3.020482 0.607714 0.719138
5
117 -151.8999877641 0.000000 %  @IN
O 0.000000 0.000000 0.000000
O 2.800000 0.000000 0.000000
H 0.830001 0.001582 0.000000
H -0.221153 0.608199 -0.718523
H 3.020482 0.607714 0.719138
5
118 -151.8949351742 0.000000 %  @IN
O 0.000000 0.000000 0.000000
O 2.800000 0.000000 0.000000
H 0.820001 0.001590 0.000000
H -0.221173 0.608191 -0.718523
H 3.020482 0.607714 0.719138
5
119 -151.8893877674 0.000000 %  @IN
O 0.000000 0.000000 0.000000
O 2.800000 0.000000 0.000000
H 0.810001 0.001598 0.000000
H -0.221194 0.608184 -0.718523
H 3.020482 0.607714 0.719138
5
120 -151.8833100320 0.000000 %  @IN
O 0.000000 0.000000 0.000000
O 2.800000 0.000000 0.000000
H 0.800001 0.001606 0.000000
H -0.221215 0.608176 -0.718523
H 3.020482 0.607714 0.719138
