5
1 -151.8489818441 0.000000 %  @IN
O 0.000000 0.000000 0.000000
O 2.050000 0.000000 0.000000
H 0.822000 0.000986 0.000000
H -0.220723 0.608355 -0.718523
H 2.270482 0.607714 0.719138
5
2 -151.8801776001 0.000000 %  @IN
O 0.000000 0.000000 0.000000
O 2.100000 0.000000 0.000000
H 0.872000 0.000986 0.000000
H -0.220682 0.608370 -0.718523
H 2.320482 0.607714 0.719138
5
3 -151.9019664418 0.000000 %  @IN
O 0.000000 0.000000 0.000000
O 2.150000 0.000000 0.000000
H 0.922000 0.000986 0.000000
H -0.220644 0.608383 -0.718523
H 2.370482 0.607714 0.719138
5
4 -151.9169501451 0.000000 %  @IN
O 0.000000 0.000000 0.000000
O 2.200000 0.000000 0.000000
H 0.972000 0.000986 0.000000
H -0.220611 0.608395 -0.718523
H 2.420482 0.607714 0.719138
5
5 -151.9270043923 0.000000 %  @IN
O 0.000000 0.000000 0.000000
O 2.250000 0.000000 0.000000
H 1.022000 0.000986 0.000000
H -0.220581 0.608406 -0.718523
H 2.470482 0.607714 0.719138
5
6 -151.9334869672 0.000000 %  @IN
O 0.000000 0.000000 0.000000
O 2.300000 0.000000 0.000000
H 1.072000 0.000986 0.000000
H -0.220553 0.608416 -0.718523
H 2.520482 0.607714 0.719138
5
7 -151.9373829554 0.000000 %  @IN
O 0.000000 0.000000 0.000000
O 2.350000 0.000000 0.000000
H 1.122000 0.000986 0.000000
H -0.220528 0.608425 -0.718523
H 2.570482 0.607714 0.719138
5
8 -151.9394067517 0.000000 %  @IN
O 0.000000 0.000000 0.000000
O 2.400000 0.000000 0.000000
H 1.172000 0.000986 0.000000
H -0.220506 0.608434 -0.718523
H 2.620482 0.607714 0.719138
5
9 -151.9400752041 0.000000 %  @IN
O 0.000000 0.000000 0.000000
O 2.450000 0.000000 0.000000
H 1.222000 0.000986 0.000000
H -0.220485 0.608441 -0.718523
H 2.670482 0.607714 0.719138
5
10 -151.9397613773 0.000000 %  @IN
O 0.000000 0.000000 0.000000
O 2.500000 0.000000 0.000000
H 1.272000 0.000986 0.000000
H -0.220465 0.608448 -0.718523
H 2.720482 0.607714 0.719138
5
11 -151.9387346950 0.000000 %  @IN
O 0.000000 0.000000 0.000000
O 2.550000 0.000000 0.000000
H 1.322000 0.000986 0.000000
H -0.220447 0.608455 -0.718523
H 2.770482 0.607714 0.719138
5
12 -151.9371908893 0.000000 %  @IN
O 0.000000 0.000000 0.000000
O 2.600000 0.000000 0.000000
H 1.372000 0.000986 0.000000
H -0.220431 0.608461 -0.718523
H 2.820482 0.607714 0.719138
5
13 -151.9352740257 0.000000 %  @IN
O 0.000000 0.000000 0.000000
O 2.650000 0.000000 0.000000
H 1.422000 0.000986 0.000000
H -0.220416 0.608466 -0.718523
H 2.870482 0.607714 0.719138
5
14 -151.9330922853 0.000000 %  @IN
O 0.000000 0.000000 0.000000
O 2.700000 0.000000 0.000000
H 1.472000 0.000986 0.000000
H -0.220401 0.608471 -0.718523
H 2.920482 0.607714 0.719138
5
15 -151.9307288672 0.000000 %  @IN
O 0.000000 0.000000 0.000000
O 2.750000 0.000000 0.000000
H 1.522000 0.000986 0.000000
H -0.220388 0.608476 -0.718523
H 2.970482 0.607714 0.719138
5
16 -151.9282492154 0.000000 %  @IN
O 0.000000 0.000000 0.000000
O 2.800000 0.000000 0.000000
H 1.572000 0.000986 0.000000
H -0.220375 0.608481 -0.718523
H 3.020482 0.607714 0.719138
5
17 -151.9257055776 0.000000 %  @IN
O 0.000000 0.000000 0.000000
O 2.850000 0.000000 0.000000
H 1.622000 0.000986 0.000000
H -0.220364 0.608485 -0.718523
H 3.070482 0.607714 0.719138
5
18 -151.9231398520 0.000000 %  @IN
O 0.000000 0.000000 0.000000
O 2.900000 0.000000 0.000000
H 1.672000 0.000986 0.000000
H -0.220352 0.608489 -0.718523
H 3.120482 0.607714 0.719138
5
19 -151.9205853686 0.000000 %  @IN
O 0.000000 0.000000 0.000000
O 2.950000 0.000000 0.000000
H 1.722000 0.000986 0.000000
H -0.220342 0.608493 -0.718523
H 3.170482 0.607714 0.719138
5
20 -151.9180681826 0.000000 %  @IN
O 0.000000 0.000000 0.000000
O 3.000000 0.000000 0.000000
H 1.772000 0.000986 0.000000
H -0.220332 0.608496 -0.718523
H 3.220482 0.607714 0.719138
5
21 -151.9156081395 0.000000 %  @IN
O 0.000000 0.000000 0.000000
O 3.050000 0.000000 0.000000
H 1.822000 0.000986 0.000000
H -0.220323 0.608500 -0.718523
H 3.270482 0.607714 0.719138
5
22 -151.9132197872 0.000000 %  @IN
O 0.000000 0.000000 0.000000
O 3.100000 0.000000 0.000000
H 1.872000 0.000986 0.000000
H -0.220314 0.608503 -0.718523
H 3.320482 0.607714 0.719138
5
23 -151.9109132769 0.000000 %  @IN
O 0.000000 0.000000 0.000000
O 3.150000 0.000000 0.000000
H 1.922000 0.000986 0.000000
H -0.220306 0.608506 -0.718523
H 3.370482 0.607714 0.719138
5
24 -151.9086951307 0.000000 %  @IN
O 0.000000 0.000000 0.000000
O 3.200000 0.000000 0.000000
H 1.972000 0.000986 0.000000
H -0.220298 0.608509 -0.718523
H 3.420482 0.607714 0.719138
5
25 -151.9065689392 0.000000 %  @IN
O 0.000000 0.000000 0.000000
O 3.250000 0.000000 0.000000
H 2.022000 0.000986 0.000000
H -0.220290 0.608512 -0.718523
H 3.470482 0.607714 0.719138
5
26 -151.9045359614 0.000000 %  @IN
O 0.000000 0.000000 0.000000
O 3.300000 0.000000 0.000000
H 2.072000 0.000986 0.000000
H -0.220283 0.608514 -0.718523
H 3.520482 0.607714 0.719138
5
27 -151.9025956807 0.000000 %  @IN
O 0.000000 0.000000 0.000000
O 3.350000 0.000000 0.000000
H 2.122000 0.000986 0.000000
H -0.220276 0.608517 -0.718523
H 3.570482 0.607714 0.719138
5
28 -151.9007462235 0.000000 %  @IN
O 0.000000 0.000000 0.000000
O 3.400000 0.000000 0.000000
H 2.172000 0.000986 0.000000
H -0.220270 0.608519 -0.718523
H 3.620482 0.607714 0.719138
5
29 -151.8989848146 0.000000 %  @IN
O 0.000000 0.000000 0.000000
O 3.450000 0.000000 0.000000
H 2.222000 0.000986 0.000000
H -0.220264 0.608521 -0.718523
H 3.670482 0.607714 0.719138
5
30 -151.8973081049 0.000000 %  @IN
O 0.000000 0.000000 0.000000
O 3.500000 0.000000 0.000000
H 2.272000 0.000986 0.000000
H -0.220258 0.608523 -0.718523
H 3.720482 0.607714 0.719138
5
31 -151.8957124723 0.000000 %  @IN
O 0.000000 0.000000 0.000000
O 3.550000 0.000000 0.000000
H 2.322000 0.000986 0.000000
H -0.220252 0.608525 -0.718523
H 3.770482 0.607714 0.719138
5
32 -151.8941942493 0.000000 %  @IN
O 0.000000 0.000000 0.000000
O 3.600000 0.000000 0.000000
H 2.372000 0.000986 0.000000
H -0.220247 0.608527 -0.718523
H 3.820482 0.607714 0.719138
5
33 -151.8927498730 0.000000 %  @IN
O 0.000000 0.000000 0.000000
O 3.650000 0.000000 0.000000
H 2.422000 0.000986 0.000000
H -0.220241 0.608529 -0.718523
H 3.870482 0.607714 0.719138
5
34 -151.8913759818 0.000000 %  @IN
O 0.000000 0.000000 0.000000
O 3.700000 0.000000 0.000000
H 2.472000 0.000986 0.000000
H -0.220236 0.608531 -0.718523
H 3.920482 0.607714 0.719138
5
35 -151.8900694398 0.000000 %  @IN
O 0.000000 0.000000 0.000000
O 3.750000 0.000000 0.000000
H 2.522000 0.000986 0.000000
H -0.220232 0.608533 -0.718523
H 3.970482 0.607714 0.719138
5
36 -151.8888273243 0.000000 %  @IN
O 0.000000 0.000000 0.000000
O 3.800000 0.000000 0.000000
H 2.572000 0.000986 0.000000
H -0.220227 0.608535 -0.718523
H 4.020482 0.607714 0.719138
5
37 -151.8876468829 0.000000 %  @IN
O 0.000000 0.000000 0.000000
O 3.850000 0.000000 0.000000
H 2.622000 0.000986 0.000000
H -0.220222 0.608536 -0.718523
H 4.070482 0.607714 0.719138
5
38 -151.8865255109 0.000000 %  @IN
O 0.000000 0.000000 0.000000
O 3.900000 0.000000 0.000000
H 2.672000 0.000986 0.000000
H -0.220218 0.608538 -0.718523
H 4.120482 0.607714 0.719138
5
39 -151.8854606531 0.000000 %  @IN
O 0.000000 0.000000 0.000000
O 3.950000 0.000000 0.000000
H 2.722000 0.000986 0.000000
H -0.220214 0.608539 -0.718523
H 4.170482 0.607714 0.719138
5
40 -151.8844498242 0.000000 %  @IN
O 0.000000 0.000000 0.000000
O 4.000000 0.000000 0.000000
H 2.772000 0.000986 0.000000
H -0.220210 0.608541 -0.718523
H 4.220482 0.607714 0.719138
5
41 -151.8834905287 0.000000 %  @IN
O 0.000000 0.000000 0.000000
O 4.050000 0.000000 0.000000
H 2.822000 0.000986 0.000000
H -0.220206 0.608542 -0.718523
H 4.270482 0.607714 0.719138
5
42 -151.8825803024 0.000000 %  @IN
O 0.000000 0.000000 0.000000
O 4.100000 0.000000 0.000000
H 2.872000 0.000986 0.000000
H -0.220203 0.608543 -0.718523
H 4.320482 0.607714 0.719138
5
43 -151.8817166905 0.000000 %  @IN
O 0.000000 0.000000 0.000000
O 4.150000 0.000000 0.000000
H 2.922000 0.000986 0.000000
H -0.220199 0.608545 -0.718523
H 4.370482 0.607714 0.719138
5
44 -151.8808972481 0.000000 %  @IN
O 0.000000 0.000000 0.000000
O 4.200000 0.000000 0.000000
H 2.972000 0.000986 0.000000
H -0.220196 0.608546 -0.718523
H 4.420482 0.607714 0.719138
5
45 -151.8801195897 0.000000 %  @IN
O 0.000000 0.000000 0.000000
O 4.250000 0.000000 0.000000
H 3.022000 0.000986 0.000000
H -0.220192 0.608547 -0.718523
H 4.470482 0.607714 0.719138
5
46 -151.8793813912 0.000000 %  @IN
O 0.000000 0.000000 0.000000
O 4.300000 0.000000 0.000000
H 3.072000 0.000986 0.000000
H -0.220189 0.608548 -0.718523
H 4.520482 0.607714 0.719138
5
47 -151.8786804052 0.000000 %  @IN
O 0.000000 0.000000 0.000000
O 4.350000 0.000000 0.000000
H 3.122000 0.000986 0.000000
H -0.220186 0.608549 -0.718523
H 4.570482 0.607714 0.719138
5
48 -151.8780144801 0.000000 %  @IN
O 0.000000 0.000000 0.000000
O 4.400000 0.000000 0.000000
H 3.172000 0.000986 0.000000
H -0.220183 0.608550 -0.718523
H 4.620482 0.607714 0.719138
5
49 -151.8773815764 0.000000 %  @IN
O 0.000000 0.000000 0.000000
O 4.450000 0.000000 0.000000
H 3.222000 0.000986 0.000000
H -0.220180 0.608552 -0.718523
H 4.670482 0.607714 0.719138
5
50 -151.8767797428 0.000000 %  @IN
O 0.000000 0.000000 0.000000
O 4.500000 0.000000 0.000000
H 3.272000 0.000986 0.000000
H -0.220177 0.608553 -0.718523
H 4.720482 0.607714 0.719138
5
51 -151.8762071607 0.000000 %  @IN
O 0.000000 0.000000 0.000000
O 4.550000 0.000000 0.000000
H 3.322000 0.000986 0.000000
H -0.220174 0.608554 -0.718523
H 4.770482 0.607714 0.719138
5
52 -151.8756621157 0.000000 %  @IN
O 0.000000 0.000000 0.000000
O 4.600000 0.000000 0.000000
H 3.372000 0.000986 0.000000
H -0.220172 0.608555 -0.718523
H 4.820482 0.607714 0.719138
5
53 -151.8751429866 0.000000 %  @IN
O 0.000000 0.000000 0.000000
O 4.650000 0.000000 0.000000
H 3.422000 0.000986 0.000000
H -0.220169 0.608555 -0.718523
H 4.870482 0.607714 0.719138
5
54 -151.8746482795 0.000000 %  @IN
O 0.000000 0.000000 0.000000
O 4.700000 0.000000 0.000000
H 3.472000 0.000986 0.000000
H -0.220166 0.608556 -0.718523
H 4.920482 0.607714 0.719138
5
55 -151.8741765750 0.000000 %  @IN
O 0.000000 0.000000 0.000000
O 4.750000 0.000000 0.000000
H 3.522000 0.000986 0.000000
H -0.220164 0.608557 -0.718523
H 4.970482 0.607714 0.719138
5
56 -151.8737265436 0.000000 %  @IN
O 0.000000 0.000000 0.000000
O 4.800000 0.000000 0.000000
H 3.572000 0.000986 0.000000
H -0.220162 0.608558 -0.718523
H 5.020482 0.607714 0.719138
5
57 -151.8732969419 0.000000 %  @IN
O 0.000000 0.000000 0.000000
O 4.850000 0.000000 0.000000
H 3.622000 0.000986 0.000000
H -0.220159 0.608559 -0.718523
H 5.070482 0.607714 0.719138
5
58 -151.8728866105 0.000000 %  @IN
O 0.000000 0.000000 0.000000
O 4.900000 0.000000 0.000000
H 3.672000 0.000986 0.000000
H -0.220157 0.608560 -0.718523
H 5.120482 0.607714 0.719138
5
59 -151.8724944580 0.000000 %  @IN
O 0.000000 0.000000 0.000000
O 4.950000 0.000000 0.000000
H 3.722000 0.000986 0.000000
H -0.220155 0.608561 -0.718523
H 5.170482 0.607714 0.719138
5
60 -151.8721194578 0.000000 %  @IN
O 0.000000 0.000000 0.000000
O 5.000000 0.000000 0.000000
H 3.772000 0.000986 0.000000
H -0.220153 0.608561 -0.718523
H 5.220482 0.607714 0.719138
