7
0 -152.8303635197 0.000000 %  @IN
O 0.000000 0.000000 0.000000
O 2.200000 0.000000 0.000000
H -0.412377 0.881291 0.000000
H 1.000092 -0.032089 0.063210
H 2.710804 -0.132308 0.816308
H 2.612332 -0.519834 -0.711677
H -0.517078 -0.584119 0.579844
7
1 -152.8378737227 0.000000 %  @IN
O 0.000000 0.000000 0.000000
O 2.250000 0.000000 0.000000
H -0.412377 0.881291 0.000000
H 1.050092 -0.032089 0.063210
H 2.760804 -0.132308 0.816308
H 2.662332 -0.519834 -0.711677
H -0.515285 -0.583280 0.582279
7
2 -152.8423440158 0.000000 %  @IN
O 0.000000 0.000000 0.000000
O 2.300000 0.000000 0.000000
H -0.412377 0.881291 0.000000
H 1.100092 -0.032089 0.063210
H 2.810804 -0.132308 0.816308
H 2.712332 -0.519834 -0.711677
H -0.513651 -0.582516 0.584485
7
3 -152.8445962328 0.000000 %  @IN
O 0.000000 0.000000 0.000000
O 2.350000 0.000000 0.000000
H -0.412377 0.881291 0.000000
H 1.150092 -0.032089 0.063210
H 2.860804 -0.132308 0.816308
H 2.762332 -0.519834 -0.711677
H -0.512154 -0.581815 0.586492
7
4 -152.8452329657 0.000000 %  @IN
O 0.000000 0.000000 0.000000
O 2.400000 0.000000 0.000000
H -0.412377 0.881291 0.000000
H 1.200092 -0.032089 0.063210
H 2.910804 -0.132308 0.816308
H 2.812332 -0.519834 -0.711677
H -0.510779 -0.581172 0.588326
7
5 -152.8446961043 0.000000 %  @IN
O 0.000000 0.000000 0.000000
O 2.450000 0.000000 0.000000
H -0.412377 0.881291 0.000000
H 1.250092 -0.032089 0.063210
H 2.960804 -0.132308 0.816308
H 2.862332 -0.519834 -0.711677
H -0.509511 -0.580579 0.590009
7
6 -152.8433100823 0.000000 %  @IN
O 0.000000 0.000000 0.000000
O 2.500000 0.000000 0.000000
H -0.412377 0.881291 0.000000
H 1.300092 -0.032089 0.063210
H 3.010804 -0.132308 0.816308
H 2.912332 -0.519834 -0.711677
H -0.508338 -0.580030 0.591558
7
7 -152.8413141059 0.000000 %  @IN
O 0.000000 0.000000 0.000000
O 2.550000 0.000000 0.000000
H -0.412377 0.881291 0.000000
H 1.350092 -0.032089 0.063210
H 3.060804 -0.132308 0.816308
H 2.962332 -0.519834 -0.711677
H -0.507250 -0.579521 0.592990
7
8 -152.8388861738 0.000000 %  @IN
O 0.000000 0.000000 0.000000
O 2.600000 0.000000 0.000000
H -0.412377 0.881291 0.000000
H 1.400092 -0.032089 0.063210
H 3.110804 -0.132308 0.816308
H 3.012332 -0.519834 -0.711677
H -0.506239 -0.579047 0.594315
7
9 -152.8361607313 0.000000 %  @IN
O 0.000000 0.000000 0.000000
O 2.650000 0.000000 0.000000
H -0.412377 0.881291 0.000000
H 1.450092 -0.032089 0.063210
H 3.160804 -0.132308 0.816308
H 3.062332 -0.519834 -0.711677
H -0.505295 -0.578606 0.595547
7
10 -152.8332413374 0.000000 %  @IN
O 0.000000 0.000000 0.000000
O 2.700000 0.000000 0.000000
H -0.412377 0.881291 0.000000
H 1.500092 -0.032089 0.063210
H 3.210804 -0.132308 0.816308
H 3.112332 -0.519834 -0.711677
H -0.504413 -0.578193 0.596695
7
11 -152.8302093268 0.000000 %  @IN
O 0.000000 0.000000 0.000000
O 2.750000 0.000000 0.000000
H -0.412377 0.881291 0.000000
H 1.550092 -0.032089 0.063210
H 3.260804 -0.132308 0.816308
H 3.162332 -0.519834 -0.711677
H -0.503587 -0.577806 0.597766
7
12 -152.8271294697 0.000000 %  @IN
O 0.000000 0.000000 0.000000
O 2.800000 0.000000 0.000000
H -0.412377 0.881291 0.000000
H 1.600092 -0.032089 0.063210
H 3.310804 -0.132308 0.816308
H 3.212332 -0.519834 -0.711677
H -0.502811 -0.577443 0.598769
7
13 -152.8240535009 0.000000 %  @IN
O 0.000000 0.000000 0.000000
O 2.850000 0.000000 0.000000
H -0.412377 0.881291 0.000000
H 1.650092 -0.032089 0.063210
H 3.360804 -0.132308 0.816308
H 3.262332 -0.519834 -0.711677
H -0.502082 -0.577102 0.599709
7
14 -152.8210223140 0.000000 %  @IN
O 0.000000 0.000000 0.000000
O 2.900000 0.000000 0.000000
H -0.412377 0.881291 0.000000
H 1.700092 -0.032089 0.063210
H 3.410804 -0.132308 0.816308
H 3.312332 -0.519834 -0.711677
H -0.501395 -0.576781 0.600593
7
15 -152.8180674742 0.000000 %  @IN
O 0.000000 0.000000 0.000000
O 2.950000 0.000000 0.000000
H -0.412377 0.881291 0.000000
H 1.750092 -0.032089 0.063210
H 3.460804 -0.132308 0.816308
H 3.362332 -0.519834 -0.711677
H -0.500746 -0.576477 0.601425
7
16 -152.8152123832 0.000000 %  @IN
O 0.000000 0.000000 0.000000
O 3.000000 0.000000 0.000000
H -0.412377 0.881291 0.000000
H 1.800092 -0.032089 0.063210
H 3.510804 -0.132308 0.816308
H 3.412332 -0.519834 -0.711677
H -0.500133 -0.576190 0.602209
7
17 -152.8124734160 0.000000 %  @IN
O 0.000000 0.000000 0.000000
O 3.050000 0.000000 0.000000
H -0.412377 0.881291 0.000000
H 1.850092 -0.032089 0.063210
H 3.560804 -0.132308 0.816308
H 3.462332 -0.519834 -0.711677
H -0.499552 -0.575919 0.602950
7
18 -152.8098610225 0.000000 %  @IN
O 0.000000 0.000000 0.000000
O 3.100000 0.000000 0.000000
H -0.412377 0.881291 0.000000
H 1.900092 -0.032089 0.063210
H 3.610804 -0.132308 0.816308
H 3.512332 -0.519834 -0.711677
H -0.499002 -0.575661 0.603652
7
19 -152.8073807339 0.000000 %  @IN
O 0.000000 0.000000 0.000000
O 3.150000 0.000000 0.000000
H -0.412377 0.881291 0.000000
H 1.950092 -0.032089 0.063210
H 3.660804 -0.132308 0.816308
H 3.562332 -0.519834 -0.711677
H -0.498479 -0.575416 0.604316
7
20 -152.8050341693 0.000000 %  @IN
O 0.000000 0.000000 0.000000
O 3.200000 0.000000 0.000000
H -0.412377 0.881291 0.000000
H 2.000092 -0.032089 0.063210
H 3.710804 -0.132308 0.816308
H 3.612332 -0.519834 -0.711677
H -0.497982 -0.575184 0.604947
7
21 -152.8028199896 0.000000 %  @IN
O 0.000000 0.000000 0.000000
O 3.250000 0.000000 0.000000
H -0.412377 0.881291 0.000000
H 2.050092 -0.032089 0.063210
H 3.760804 -0.132308 0.816308
H 3.662332 -0.519834 -0.711677
H -0.497509 -0.574963 0.605546
7
22 -152.8007346592 0.000000 %  @IN
O 0.000000 0.000000 0.000000
O 3.300000 0.000000 0.000000
H -0.412377 0.881291 0.000000
H 2.100092 -0.032089 0.063210
H 3.810804 -0.132308 0.816308
H 3.712332 -0.519834 -0.711677
H -0.497059 -0.574752 0.606116
7
23 -152.7987731456 0.000000 %  @IN
O 0.000000 0.000000 0.000000
O 3.350000 0.000000 0.000000
H -0.412377 0.881291 0.000000
H 2.150092 -0.032089 0.063210
H 3.860804 -0.132308 0.816308
H 3.762332 -0.519834 -0.711677
H -0.496629 -0.574551 0.606659
7
24 -152.7969295426 0.000000 %  @IN
O 0.000000 0.000000 0.000000
O 3.400000 0.000000 0.000000
H -0.412377 0.881291 0.000000
H 2.200092 -0.032089 0.063210
H 3.910804 -0.132308 0.816308
H 3.812332 -0.519834 -0.711677
H -0.496218 -0.574358 0.607177
7
25 -152.7951974532 0.000000 %  @IN
O 0.000000 0.000000 0.000000
O 3.450000 0.000000 0.000000
H -0.412377 0.881291 0.000000
H 2.250092 -0.032089 0.063210
H 3.960804 -0.132308 0.816308
H 3.862332 -0.519834 -0.711677
H -0.495825 -0.574175 0.607672
7
26 -152.7935704697 0.000000 %  @IN
O 0.000000 0.000000 0.000000
O 3.500000 0.000000 0.000000
H -0.412377 0.881291 0.000000
H 2.300092 -0.032089 0.063210
H 4.010804 -0.132308 0.816308
H 3.912332 -0.519834 -0.711677
H -0.495450 -0.573999 0.608144
7
27 -152.7920422750 0.000000 %  @IN
O 0.000000 0.000000 0.000000
O 3.550000 0.000000 0.000000
H -0.412377 0.881291 0.000000
H 2.350092 -0.032089 0.063210
H 4.060804 -0.132308 0.816308
H 3.962332 -0.519834 -0.711677
H -0.495089 -0.573830 0.608596
7
28 -152.7906068597 0.000000 %  @IN
O 0.000000 0.000000 0.000000
O 3.600000 0.000000 0.000000
H -0.412377 0.881291 0.000000
H 2.400092 -0.032089 0.063210
H 4.110804 -0.132308 0.816308
H 4.012332 -0.519834 -0.711677
H -0.494744 -0.573669 0.609029
7
29 -152.7892586182 0.000000 %  @IN
O 0.000000 0.000000 0.000000
O 3.650000 0.000000 0.000000
H -0.412377 0.881291 0.000000
H 2.450092 -0.032089 0.063210
H 4.160804 -0.132308 0.816308
H 4.062332 -0.519834 -0.711677
H -0.494413 -0.573514 0.609444
7
30 -152.7879922982 0.000000 %  @IN
O 0.000000 0.000000 0.000000
O 3.700000 0.000000 0.000000
H -0.412377 0.881291 0.000000
H 2.500092 -0.032089 0.063210
H 4.210804 -0.132308 0.816308
H 4.112332 -0.519834 -0.711677
H -0.494095 -0.573365 0.609842
7
31 -152.7868029992 0.000000 %  @IN
O 0.000000 0.000000 0.000000
O 3.750000 0.000000 0.000000
H -0.412377 0.881291 0.000000
H 2.550092 -0.032089 0.063210
H 4.260804 -0.132308 0.816308
H 4.162332 -0.519834 -0.711677
H -0.493789 -0.573222 0.610224
7
32 -152.7856861449 0.000000 %  @IN
O 0.000000 0.000000 0.000000
O 3.800000 0.000000 0.000000
H -0.412377 0.881291 0.000000
H 2.600092 -0.032089 0.063210
H 4.310804 -0.132308 0.816308
H 4.212332 -0.519834 -0.711677
H -0.493495 -0.573084 0.610591
7
33 -152.7846373792 0.000000 %  @IN
O 0.000000 0.000000 0.000000
O 3.850000 0.000000 0.000000
H -0.412377 0.881291 0.000000
H 2.650092 -0.032089 0.063210
H 4.360804 -0.132308 0.816308
H 4.262332 -0.519834 -0.711677
H -0.493212 -0.572952 0.610944
7
34 -152.7836526020 0.000000 %  @IN
O 0.000000 0.000000 0.000000
O 3.900000 0.000000 0.000000
H -0.412377 0.881291 0.000000
H 2.700092 -0.032089 0.063210
H 4.410804 -0.132308 0.816308
H 4.312332 -0.519834 -0.711677
H -0.492939 -0.572824 0.611284
7
35 -152.7827278500 0.000000 %  @IN
O 0.000000 0.000000 0.000000
O 3.950000 0.000000 0.000000
H -0.412377 0.881291 0.000000
H 2.750092 -0.032089 0.063210
H 4.460804 -0.132308 0.816308
H 4.362332 -0.519834 -0.711677
H -0.492676 -0.572701 0.611611
7
36 -152.7818593382 0.000000 %  @IN
O 0.000000 0.000000 0.000000
O 4.000000 0.000000 0.000000
H -0.412377 0.881291 0.000000
H 2.800092 -0.032089 0.063210
H 4.510804 -0.132308 0.816308
H 4.412332 -0.519834 -0.711677
H -0.492422 -0.572582 0.611926
7
37 -152.7810434037 0.000000 %  @IN
O 0.000000 0.000000 0.000000
O 4.050000 0.000000 0.000000
H -0.412377 0.881291 0.000000
H 2.850092 -0.032089 0.063210
H 4.560804 -0.132308 0.816308
H 4.462332 -0.519834 -0.711677
H -0.492178 -0.572468 0.612230
7
38 -152.7802765717 0.000000 %  @IN
O 0.000000 0.000000 0.000000
O 4.100000 0.000000 0.000000
H -0.412377 0.881291 0.000000
H 2.900092 -0.032089 0.063210
H 4.610804 -0.132308 0.816308
H 4.512332 -0.519834 -0.711677
H -0.491941 -0.572357 0.612524
7
39 -152.7795555094 0.000000 %  @IN
O 0.000000 0.000000 0.000000
O 4.150000 0.000000 0.000000
H -0.412377 0.881291 0.000000
H 2.950092 -0.032089 0.063210
H 4.660804 -0.132308 0.816308
H 4.562332 -0.519834 -0.711677
H -0.491713 -0.572250 0.612807
7
0 -152.7788770399 0.000000 %  @IN
O 0.000000 0.000000 0.000000
O 4.200000 0.000000 0.000000
H -0.412377 0.881291 0.000000
H 3.000092 -0.032089 0.063210
H 4.710804 -0.132308 0.816308
H 4.612332 -0.519834 -0.711677
H -0.491492 -0.572147 0.613081
7
1 -152.7782382071 0.000000 %  @IN
O 0.000000 0.000000 0.000000
O 4.250000 0.000000 0.000000
H -0.412377 0.881291 0.000000
H 3.050092 -0.032089 0.063210
H 4.760804 -0.132308 0.816308
H 4.662332 -0.519834 -0.711677
H -0.491278 -0.572047 0.613346
7
2 -152.7776362287 0.000000 %  @IN
O 0.000000 0.000000 0.000000
O 4.300000 0.000000 0.000000
H -0.412377 0.881291 0.000000
H 3.100092 -0.032089 0.063210
H 4.810804 -0.132308 0.816308
H 4.712332 -0.519834 -0.711677
H -0.491071 -0.571950 0.613602
7
3 -152.7770685113 0.000000 %  @IN
O 0.000000 0.000000 0.000000
O 4.350000 0.000000 0.000000
H -0.412377 0.881291 0.000000
H 3.150092 -0.032089 0.063210
H 4.860804 -0.132308 0.816308
H 4.762332 -0.519834 -0.711677
H -0.490870 -0.571856 0.613849
7
4 -152.7765326441 0.000000 %  @IN
O 0.000000 0.000000 0.000000
O 4.400000 0.000000 0.000000
H -0.412377 0.881291 0.000000
H 3.200092 -0.032089 0.063210
H 4.910804 -0.132308 0.816308
H 4.812332 -0.519834 -0.711677
H -0.490676 -0.571765 0.614089
7
5 -152.7760264054 0.000000 %  @IN
O 0.000000 0.000000 0.000000
O 4.450000 0.000000 0.000000
H -0.412377 0.881291 0.000000
H 3.250092 -0.032089 0.063210
H 4.960804 -0.132308 0.816308
H 4.862332 -0.519834 -0.711677
H -0.490488 -0.571677 0.614322
7
6 -152.7755477524 0.000000 %  @IN
O 0.000000 0.000000 0.000000
O 4.500000 0.000000 0.000000
H -0.412377 0.881291 0.000000
H 3.300092 -0.032089 0.063210
H 5.010804 -0.132308 0.816308
H 4.912332 -0.519834 -0.711677
H -0.490305 -0.571592 0.614547
7
7 -152.7750948122 0.000000 %  @IN
O 0.000000 0.000000 0.000000
O 4.550000 0.000000 0.000000
H -0.412377 0.881291 0.000000
H 3.350092 -0.032089 0.063210
H 5.060804 -0.132308 0.816308
H 4.962332 -0.519834 -0.711677
H -0.490128 -0.571509 0.614765
7
8 -152.7746658324 0.000000 %  @IN
O 0.000000 0.000000 0.000000
O 4.600000 0.000000 0.000000
H -0.412377 0.881291 0.000000
H 3.400092 -0.032089 0.063210
H 5.110804 -0.132308 0.816308
H 5.012332 -0.519834 -0.711677
H -0.489956 -0.571428 0.614977
7
9 -152.7742591861 0.000000 %  @IN
O 0.000000 0.000000 0.000000
O 4.650000 0.000000 0.000000
H -0.412377 0.881291 0.000000
H 3.450092 -0.032089 0.063210
H 5.160804 -0.132308 0.816308
H 5.062332 -0.519834 -0.711677
H -0.489789 -0.571350 0.615183
7
10 -152.7738733992 0.000000 %  @IN
O 0.000000 0.000000 0.000000
O 4.700000 0.000000 0.000000
H -0.412377 0.881291 0.000000
H 3.500092 -0.032089 0.063210
H 5.210804 -0.132308 0.816308
H 5.112332 -0.519834 -0.711677
H -0.489626 -0.571274 0.615383
7
11 -152.7735071001 0.000000 %  @IN
O 0.000000 0.000000 0.000000
O 4.750000 0.000000 0.000000
H -0.412377 0.881291 0.000000
H 3.550092 -0.032089 0.063210
H 5.260804 -0.132308 0.816308
H 5.162332 -0.519834 -0.711677
H -0.489469 -0.571200 0.615577
7
12 -152.7731589919 0.000000 %  @IN
O 0.000000 0.000000 0.000000
O 4.800000 0.000000 0.000000
H -0.412377 0.881291 0.000000
H 3.600092 -0.032089 0.063210
H 5.310804 -0.132308 0.816308
H 5.212332 -0.519834 -0.711677
H -0.489315 -0.571128 0.615766
7
13 -152.7728279028 0.000000 %  @IN
O 0.000000 0.000000 0.000000
O 4.850000 0.000000 0.000000
H -0.412377 0.881291 0.000000
H 3.650092 -0.032089 0.063210
H 5.360804 -0.132308 0.816308
H 5.262332 -0.519834 -0.711677
H -0.489166 -0.571058 0.615949
7
14 -152.7725127166 0.000000 %  @IN
O 0.000000 0.000000 0.000000
O 4.900000 0.000000 0.000000
H -0.412377 0.881291 0.000000
H 3.700092 -0.032089 0.063210
H 5.410804 -0.132308 0.816308
H 5.312332 -0.519834 -0.711677
H -0.489020 -0.570990 0.616127
7
15 -152.7722124103 0.000000 %  @IN
O 0.000000 0.000000 0.000000
O 4.950000 0.000000 0.000000
H -0.412377 0.881291 0.000000
H 3.750092 -0.032089 0.063210
H 5.460804 -0.132308 0.816308
H 5.362332 -0.519834 -0.711677
H -0.488879 -0.570924 0.616301
7
16 -152.7719260358 0.000000 %  @IN
O 0.000000 0.000000 0.000000
O 5.000000 0.000000 0.000000
H -0.412377 0.881291 0.000000
H 3.800092 -0.032089 0.063210
H 5.510804 -0.132308 0.816308
H 5.412332 -0.519834 -0.711677
H -0.488741 -0.570860 0.616470
7
17 -152.7716527348 0.000000 %  @IN
O 0.000000 0.000000 0.000000
O 5.050000 0.000000 0.000000
H -0.412377 0.881291 0.000000
H 3.850092 -0.032089 0.063210
H 5.560804 -0.132308 0.816308
H 5.462332 -0.519834 -0.711677
H -0.488607 -0.570797 0.616634
7
18 -152.7713916542 0.000000 %  @IN
O 0.000000 0.000000 0.000000
O 5.100000 0.000000 0.000000
H -0.412377 0.881291 0.000000
H 3.900092 -0.032089 0.063210
H 5.610804 -0.132308 0.816308
H 5.512332 -0.519834 -0.711677
H -0.488476 -0.570736 0.616795
7
19 -152.7711420748 0.000000 %  @IN
O 0.000000 0.000000 0.000000
O 5.150000 0.000000 0.000000
H -0.412377 0.881291 0.000000
H 3.950092 -0.032089 0.063210
H 5.660804 -0.132308 0.816308
H 5.562332 -0.519834 -0.711677
H -0.488349 -0.570676 0.616951
7
20 -152.7709032662 0.000000 %  @IN
O 0.000000 0.000000 0.000000
O 5.200000 0.000000 0.000000
H -0.412377 0.881291 0.000000
H 4.000092 -0.032089 0.063210
H 5.710804 -0.132308 0.816308
H 5.612332 -0.519834 -0.711677
H -0.488225 -0.570618 0.617103
7
21 -152.7706745947 0.000000 %  @IN
O 0.000000 0.000000 0.000000
O 5.250000 0.000000 0.000000
H -0.412377 0.881291 0.000000
H 4.050092 -0.032089 0.063210
H 5.760804 -0.132308 0.816308
H 5.662332 -0.519834 -0.711677
H -0.488103 -0.570561 0.617251
7
22 -152.7704554393 0.000000 %  @IN
O 0.000000 0.000000 0.000000
O 5.300000 0.000000 0.000000
H -0.412377 0.881291 0.000000
H 4.100092 -0.032089 0.063210
H 5.810804 -0.132308 0.816308
H 5.712332 -0.519834 -0.711677
H -0.487985 -0.570506 0.617396
7
23 -152.7702452628 0.000000 %  @IN
O 0.000000 0.000000 0.000000
O 5.350000 0.000000 0.000000
H -0.412377 0.881291 0.000000
H 4.150092 -0.032089 0.063210
H 5.860804 -0.132308 0.816308
H 5.762332 -0.519834 -0.711677
H -0.487869 -0.570452 0.617537
7
24 -152.7700435480 0.000000 %  @IN
O 0.000000 0.000000 0.000000
O 5.400000 0.000000 0.000000
H -0.412377 0.881291 0.000000
H 4.200092 -0.032089 0.063210
H 5.910804 -0.132308 0.816308
H 5.812332 -0.519834 -0.711677
H -0.487757 -0.570399 0.617675
7
25 -152.7698497985 0.000000 %  @IN
O 0.000000 0.000000 0.000000
O 5.450000 0.000000 0.000000
H -0.412377 0.881291 0.000000
H 4.250092 -0.032089 0.063210
H 5.960804 -0.132308 0.816308
H 5.862332 -0.519834 -0.711677
H -0.487647 -0.570348 0.617809
7
26 -152.7696635931 0.000000 %  @IN
O 0.000000 0.000000 0.000000
O 5.500000 0.000000 0.000000
H -0.412377 0.881291 0.000000
H 4.300092 -0.032089 0.063210
H 6.010804 -0.132308 0.816308
H 5.912332 -0.519834 -0.711677
H -0.487539 -0.570297 0.617941
7
27 -152.7694845004 0.000000 %  @IN
O 0.000000 0.000000 0.000000
O 5.550000 0.000000 0.000000
H -0.412377 0.881291 0.000000
H 4.350092 -0.032089 0.063210
H 6.060804 -0.132308 0.816308
H 5.962332 -0.519834 -0.711677
H -0.487434 -0.570248 0.618069
7
28 -152.7693121457 0.000000 %  @IN
O 0.000000 0.000000 0.000000
O 5.600000 0.000000 0.000000
H -0.412377 0.881291 0.000000
H 4.400092 -0.032089 0.063210
H 6.110804 -0.132308 0.816308
H 6.012332 -0.519834 -0.711677
H -0.487331 -0.570200 0.618194
7
29 -152.7691461685 0.000000 %  @IN
O 0.000000 0.000000 0.000000
O 5.650000 0.000000 0.000000
H -0.412377 0.881291 0.000000
H 4.450092 -0.032089 0.063210
H 6.160804 -0.132308 0.816308
H 6.062332 -0.519834 -0.711677
H -0.487231 -0.570153 0.618317
7
30 -152.7689862388 0.000000 %  @IN
O 0.000000 0.000000 0.000000
O 5.700000 0.000000 0.000000
H -0.412377 0.881291 0.000000
H 4.500092 -0.032089 0.063210
H 6.210804 -0.132308 0.816308
H 6.112332 -0.519834 -0.711677
H -0.487132 -0.570107 0.618437
7
31 -152.7688320538 0.000000 %  @IN
O 0.000000 0.000000 0.000000
O 5.750000 0.000000 0.000000
H -0.412377 0.881291 0.000000
H 4.550092 -0.032089 0.063210
H 6.260804 -0.132308 0.816308
H 6.162332 -0.519834 -0.711677
H -0.487036 -0.570062 0.618554
7
32 -152.7686833219 0.000000 %  @IN
O 0.000000 0.000000 0.000000
O 5.800000 0.000000 0.000000
H -0.412377 0.881291 0.000000
H 4.600092 -0.032089 0.063210
H 6.310804 -0.132308 0.816308
H 6.212332 -0.519834 -0.711677
H -0.486942 -0.570018 0.618668
7
33 -152.7685397659 0.000000 %  @IN
O 0.000000 0.000000 0.000000
O 5.850000 0.000000 0.000000
H -0.412377 0.881291 0.000000
H 4.650092 -0.032089 0.063210
H 6.360804 -0.132308 0.816308
H 6.262332 -0.519834 -0.711677
H -0.486850 -0.569975 0.618780
7
34 -152.7684011331 0.000000 %  @IN
O 0.000000 0.000000 0.000000
O 5.900000 0.000000 0.000000
H -0.412377 0.881291 0.000000
H 4.700092 -0.032089 0.063210
H 6.410804 -0.132308 0.816308
H 6.312332 -0.519834 -0.711677
H -0.486760 -0.569933 0.618890
7
35 -152.7682671944 0.000000 %  @IN
O 0.000000 0.000000 0.000000
O 5.950000 0.000000 0.000000
H -0.412377 0.881291 0.000000
H 4.750092 -0.032089 0.063210
H 6.460804 -0.132308 0.816308
H 6.362332 -0.519834 -0.711677
H -0.486672 -0.569892 0.618997
7
36 -152.7681377386 0.000000 %  @IN
O 0.000000 0.000000 0.000000
O 6.000000 0.000000 0.000000
H -0.412377 0.881291 0.000000
H 4.800092 -0.032089 0.063210
H 6.510804 -0.132308 0.816308
H 6.412332 -0.519834 -0.711677
H -0.486586 -0.569851 0.619102
7
37 -152.7680125154 0.000000 %  @IN
O 0.000000 0.000000 0.000000
O 6.050000 0.000000 0.000000
H -0.412377 0.881291 0.000000
H 4.850092 -0.032089 0.063210
H 6.560804 -0.132308 0.816308
H 6.462332 -0.519834 -0.711677
H -0.486501 -0.569812 0.619205
7
38 -152.7678913687 0.000000 %  @IN
O 0.000000 0.000000 0.000000
O 6.100000 0.000000 0.000000
H -0.412377 0.881291 0.000000
H 4.900092 -0.032089 0.063210
H 6.610804 -0.132308 0.816308
H 6.512332 -0.519834 -0.711677
H -0.486418 -0.569773 0.619306
7
39 -152.7677740934 0.000000 %  @IN
O 0.000000 0.000000 0.000000
O 6.150000 0.000000 0.000000
H -0.412377 0.881291 0.000000
H 4.950092 -0.032089 0.063210
H 6.660804 -0.132308 0.816308
H 6.562332 -0.519834 -0.711677
H -0.486337 -0.569735 0.619405
