3
0 -76.2580194745 0.000000 %  @IN
O 0.000000 0.000000 0.092149
H 0.000000 0.723324 -0.264370
H 0.000000 -0.723324 -0.264370
3
1 -76.2755063671 0.000000 %  @IN
O 0.000000 0.000000 0.095406
H 0.000000 0.727666 -0.290427
H 0.000000 -0.727666 -0.290427
3
2 -76.2904279729 0.000000 %  @IN
O 0.000000 0.000000 0.098663
H 0.000000 0.732009 -0.316484
H 0.000000 -0.732009 -0.316484
3
3 -76.3027779844 0.000000 %  @IN
O 0.000000 0.000000 0.101920
H 0.000000 0.736352 -0.342541
H 0.000000 -0.736352 -0.342541
3
4 -76.3126063772 0.000000 %  @IN
O 0.000000 0.000000 0.105178
H 0.000000 0.740695 -0.368598
H 0.000000 -0.740695 -0.368598
3
5 -76.3200054754 0.000000 %  @IN
O 0.000000 0.000000 0.108435
H 0.000000 0.745038 -0.394654
H 0.000000 -0.745038 -0.394654
3
6 -76.3251014208 0.000000 %  @IN
O 0.000000 0.000000 0.111692
H 0.000000 0.749380 -0.420711
H 0.000000 -0.749380 -0.420711
3
7 -76.3280427257 0.000000 %  @IN
O 0.000000 0.000000 0.114949
H 0.000000 0.753723 -0.446768
H 0.000000 -0.753723 -0.446768
3
8 -76.3289923683 0.000000 %  @IN
O 0.000000 0.000000 0.118206
H 0.000000 0.758066 -0.472825
H 0.000000 -0.758066 -0.472825
3
9 -76.3281216192 0.000000 %  @IN
O 0.000000 0.000000 0.121463
H 0.000000 0.762409 -0.498882
H 0.000000 -0.762409 -0.498882
3
10 -76.3256044781 0.000000 %  @IN
O 0.000000 0.000000 0.124720
H 0.000000 0.766752 -0.524939
H 0.000000 -0.766752 -0.524939
3
11 -76.3216136357 0.000000 %  @IN
O 0.000000 0.000000 0.127977
H 0.000000 0.771094 -0.550996
H 0.000000 -0.771094 -0.550996
3
12 -76.3163170142 0.000000 %  @IN
O 0.000000 0.000000 0.131234
H 0.000000 0.775437 -0.577052
H 0.000000 -0.775437 -0.577052
3
13 -76.3098752053 0.000000 %  @IN
O 0.000000 0.000000 0.134492
H 0.000000 0.779780 -0.603109
H 0.000000 -0.779780 -0.603109
3
14 -76.3024411542 0.000000 %  @IN
O 0.000000 0.000000 0.137749
H 0.000000 0.784123 -0.629166
H 0.000000 -0.784123 -0.629166
3
15 -76.2941572657 0.000000 %  @IN
O 0.000000 0.000000 0.141006
H 0.000000 0.788466 -0.655223
H 0.000000 -0.788466 -0.655223
3
16 -76.2851557071 0.000000 %  @IN
O 0.000000 0.000000 0.144263
H 0.000000 0.792808 -0.681280
H 0.000000 -0.792808 -0.681280
3
17 -76.2659444417 0.000000 %  @IN
O 0.000000 -0.014835 0.103371
H 0.000000 0.967877 -0.445274
H 0.000000 -0.730515 -0.263014
3
18 -76.2808660395 0.000000 %  @IN
O 0.000000 -0.012981 0.105225
H 0.000000 0.941651 -0.448718
H 0.000000 -0.733959 -0.289240
3
19 -76.2937817439 0.000000 %  @IN
O 0.000000 -0.011126 0.107080
H 0.000000 0.915425 -0.452162
H 0.000000 -0.737403 -0.315466
3
20 -76.3046666809 0.000000 %  @IN
O 0.000000 -0.009272 0.108934
H 0.000000 0.889198 -0.455606
H 0.000000 -0.740847 -0.341693
3
21 -76.3135171228 0.000000 %  @IN
O 0.000000 -0.007418 0.110788
H 0.000000 0.862972 -0.459049
H 0.000000 -0.744290 -0.367919
3
22 -76.3203464068 0.000000 %  @IN
O 0.000000 -0.005563 0.112643
H 0.000000 0.836745 -0.462493
H 0.000000 -0.747734 -0.394146
3
23 -76.3251778261 0.000000 %  @IN
O 0.000000 -0.003709 0.114497
H 0.000000 0.810519 -0.465937
H 0.000000 -0.751178 -0.420372
3
24 -76.3280461373 0.000000 %  @IN
O 0.000000 -0.001854 0.116352
H 0.000000 0.784292 -0.469381
H 0.000000 -0.754622 -0.446599
3
25 -76.3289923683 0.000000 %  @IN
O 0.000000 0.000000 0.118206
H 0.000000 0.758066 -0.472825
H 0.000000 -0.758066 -0.472825
3
26 -76.3280645808 0.000000 %  @IN
O 0.000000 0.001854 0.120060
H 0.000000 0.731840 -0.476269
H 0.000000 -0.761510 -0.499051
3
27 -76.3253162314 0.000000 %  @IN
O 0.000000 0.003709 0.121915
H 0.000000 0.705613 -0.479713
H 0.000000 -0.764954 -0.525278
3
28 -76.3208077344 0.000000 %  @IN
O 0.000000 0.005563 0.123769
H 0.000000 0.679387 -0.483157
H 0.000000 -0.768398 -0.551504
3
29 -76.3146057695 0.000000 %  @IN
O 0.000000 0.007418 0.125624
H 0.000000 0.653160 -0.486601
H 0.000000 -0.771842 -0.577731
3
30 -76.3067871693 0.000000 %  @IN
O 0.000000 0.009272 0.127478
H 0.000000 0.626934 -0.490044
H 0.000000 -0.775285 -0.603957
3
31 -76.2974379229 0.000000 %  @IN
O 0.000000 0.011126 0.129332
H 0.000000 0.600707 -0.493488
H 0.000000 -0.778729 -0.630184
3
32 -76.2866577083 0.000000 %  @IN
O 0.000000 0.012981 0.131187
H 0.000000 0.574481 -0.496932
H 0.000000 -0.782173 -0.656410
3
33 -76.2745608285 0.000000 %  @IN
O 0.000000 0.014835 0.133041
H 0.000000 0.548255 -0.500376
H 0.000000 -0.785617 -0.682636
3
34 -76.1036838739 0.000000 %  @IN
O 0.000000 -0.014773 0.107654
H 0.000000 0.751735 -0.479156
H 0.000000 -0.515361 -0.297655
3
35 -76.1758750844 0.000000 %  @IN
O 0.000000 -0.012927 0.108973
H 0.000000 0.752526 -0.478365
H 0.000000 -0.545699 -0.319551
3
36 -76.2286492449 0.000000 %  @IN
O 0.000000 -0.011080 0.110292
H 0.000000 0.753317 -0.477574
H 0.000000 -0.576037 -0.341448
3
37 -76.2665526240 0.000000 %  @IN
O 0.000000 -0.009233 0.111611
H 0.000000 0.754109 -0.476782
H 0.000000 -0.606375 -0.363344
3
38 -76.2930306152 0.000000 %  @IN
O 0.000000 -0.007387 0.112930
H 0.000000 0.754900 -0.475991
H 0.000000 -0.636713 -0.385240
3
39 -76.3107138040 0.000000 %  @IN
O 0.000000 -0.005540 0.114249
H 0.000000 0.755692 -0.475199
H 0.000000 -0.667052 -0.407136
3
40 -76.3216207508 0.000000 %  @IN
O 0.000000 -0.003693 0.115568
H 0.000000 0.756483 -0.474408
H 0.000000 -0.697390 -0.429033
3
41 -76.3273107457 0.000000 %  @IN
O 0.000000 -0.001847 0.116887
H 0.000000 0.757275 -0.473616
H 0.000000 -0.727728 -0.450929
3
42 -76.3289923683 0.000000 %  @IN
O 0.000000 0.000000 0.118206
H 0.000000 0.758066 -0.472825
H 0.000000 -0.758066 -0.472825
3
43 -76.3276047537 0.000000 %  @IN
O 0.000000 0.001847 0.119525
H 0.000000 0.758857 -0.472034
H 0.000000 -0.788404 -0.494721
3
44 -76.3238809942 0.000000 %  @IN
O 0.000000 0.003693 0.120844
H 0.000000 0.759649 -0.471242
H 0.000000 -0.818742 -0.516617
3
45 -76.3183953683 0.000000 %  @IN
O 0.000000 0.005540 0.122163
H 0.000000 0.760440 -0.470451
H 0.000000 -0.849080 -0.538514
3
46 -76.3116002789 0.000000 %  @IN
O 0.000000 0.007387 0.123482
H 0.000000 0.761232 -0.469659
H 0.000000 -0.879419 -0.560410
3
47 -76.3038536620 0.000000 %  @IN
O 0.000000 0.009233 0.124801
H 0.000000 0.762023 -0.468868
H 0.000000 -0.909757 -0.582306
3
48 -76.2954383026 0.000000 %  @IN
O 0.000000 0.011080 0.126120
H 0.000000 0.762815 -0.468076
H 0.000000 -0.940095 -0.604202
3
49 -76.2865788324 0.000000 %  @IN
O 0.000000 0.012927 0.127439
H 0.000000 0.763606 -0.467285
H 0.000000 -0.970433 -0.626099
3
50 -76.2774534632 0.000000 %  @IN
O 0.000000 0.014773 0.128758
H 0.000000 0.764397 -0.466494
H 0.000000 -1.000771 -0.647995