3
0 -76.3289923690 0.000105 % @FREQ 3 1628.009 3823.582 3949.451 @IN
O 0.000000 0.000000 0.118206
H 0.000000 0.758066 -0.472825
H 0.000000 -0.758066 -0.472825
6
0 -152.6662409268 0.000009 % @FREQ 12 126.878 147.419 154.859 184.046 360.374 630.280 1629.303 1650.186 3718.675 3813.837 3915.296 3935.217 @IN
O 1.513001 0.000023 -0.121985
O -1.385291 -0.000018 0.110494
H 0.559593 -0.000011 0.048816
H 1.913486 -0.000142 0.750929
H -1.747383 -0.760986 -0.354030
H -1.747380 0.761101 -0.353786
9
0 -229.0129338058 0.000026 % @FREQ 21 174.369 182.938 188.834 201.727 218.851 240.799 348.012 359.797 447.008 577.027 668.190 863.716 1639.756 1642.597 1667.189 3576.760 3640.452 3648.438 3901.428 3904.715 3905.772 @IN
O 1.507501 -0.559477 -0.083279
O -1.242672 -1.018256 -0.092931
O -0.264115 1.583126 0.109015
H 2.080811 -0.962645 0.573819
H 0.665279 -1.045952 -0.028418
H -1.893606 -1.303531 0.553524
H -1.216577 -0.046244 -0.023375
H 0.567754 1.078166 0.055062
H -0.209379 2.237064 -0.593048
12
0 -305.3615354594 0.000014 % @FREQ 30 49.923 81.156 208.879 213.186 238.866 239.039 256.406 256.691 261.194 289.133 411.912 440.991 455.426 456.167 757.299 826.363 826.816 989.562 1645.155 1659.723 1660.088 1689.026 3391.005 3487.314 3488.006 3528.007 3896.636 3897.354 3897.467 3898.208 @IN
O -1.894801 -0.371137 -0.007126
O 0.371233 -1.895074 0.006878
O -0.371060 1.894831 0.006919
O 1.894820 0.370937 -0.007043
H -0.512069 -1.466364 -0.008636
H 0.350049 -2.493081 0.758681
H -2.500811 -0.350147 -0.752484
H 0.512428 1.466394 -0.006317
H -0.350902 2.495690 0.756468
H -1.466535 0.512472 0.004696
H 1.466543 -0.512693 0.003885
H 2.499756 0.351273 -0.753308
