6
0 -152.6653120600 0.000000 %  @IN
O 1.513001 -0.017996 -0.121985
O -1.385291 0.002985 0.110494
H 0.559593 0.060052 0.048816
H 1.913486 0.186054 0.750929
H -1.636266 -0.742967 -0.468150
H -1.858497 0.779120 -0.239666
6
1 -152.6657632047 0.000000 %  @IN
O 1.513001 -0.014993 -0.121985
O -1.385291 0.002485 0.110494
H 0.559593 0.050042 0.048816
H 1.913486 0.155021 0.750929
H -1.654786 -0.745970 -0.449130
H -1.839977 0.776117 -0.258686
6
2 -152.6660257335 0.000000 %  @IN
O 1.513001 -0.011990 -0.121985
O -1.385291 0.001984 0.110494
H 0.559593 0.040031 0.048816
H 1.913486 0.123988 0.750929
H -1.673305 -0.748973 -0.430110
H -1.821458 0.773114 -0.277706
6
3 -152.6661605534 0.000000 %  @IN
O 1.513001 -0.008986 -0.121985
O -1.385291 0.001484 0.110494
H 0.559593 0.030021 0.048816
H 1.913486 0.092956 0.750929
H -1.691825 -0.751977 -0.411090
H -1.802938 0.770110 -0.296726
6
4 -152.6662183742 0.000000 %  @IN
O 1.513001 -0.005983 -0.121985
O -1.385291 0.000983 0.110494
H 0.559593 0.020010 0.048816
H 1.913486 0.061923 0.750929
H -1.710344 -0.754980 -0.392070
H -1.784419 0.767107 -0.315746
6
5 -152.6662372857 0.000000 %  @IN
O 1.513001 -0.002980 -0.121985
O -1.385291 0.000483 0.110494
H 0.559593 0.010000 0.048816
H 1.913486 0.030891 0.750929
H -1.728864 -0.757983 -0.373050
H -1.765899 0.764104 -0.334766
6
6 -152.6662409207 0.000000 %  @IN
O 1.513001 0.000023 -0.121985
O -1.385291 -0.000018 0.110494
H 0.559593 -0.000011 0.048816
H 1.913486 -0.000142 0.750929
H -1.747383 -0.760986 -0.354030
H -1.747380 0.761101 -0.353786
6
7 -152.6662372762 0.000000 %  @IN
O 1.513001 0.003026 -0.121985
O -1.385291 -0.000519 0.110494
H 0.559593 -0.010022 0.048816
H 1.913486 -0.031175 0.750929
H -1.765902 -0.763989 -0.335010
H -1.728861 0.758098 -0.372806
6
8 -152.6662183230 0.000000 %  @IN
O 1.513001 0.006029 -0.121985
O -1.385291 -0.001019 0.110494
H 0.559593 -0.020032 0.048816
H 1.913486 -0.062207 0.750929
H -1.784422 -0.766992 -0.315990
H -1.710341 0.755095 -0.391826
6
9 -152.6661603984 0.000000 %  @IN
O 1.513001 0.009032 -0.121985
O -1.385291 -0.001520 0.110494
H 0.559593 -0.030043 0.048816
H 1.913486 -0.093240 0.750929
H -1.802941 -0.769995 -0.296970
H -1.691822 0.752092 -0.410846
6
10 -152.6660253891 0.000000 %  @IN
O 1.513001 0.012036 -0.121985
O -1.385291 -0.002020 0.110494
H 0.559593 -0.040053 0.048816
H 1.913486 -0.124272 0.750929
H -1.821461 -0.772999 -0.277950
H -1.673302 0.749088 -0.429866
6
11 -152.6657625692 0.000000 %  @IN
O 1.513001 0.015039 -0.121985
O -1.385291 -0.002521 0.110494
H 0.559593 -0.050064 0.048816
H 1.913486 -0.155305 0.750929
H -1.839980 -0.776002 -0.258930
H -1.654783 0.746085 -0.448886
6
12 -152.6653110247 0.000000 %  @IN
O 1.513001 0.018042 -0.121985
O -1.385291 -0.003021 0.110494
H 0.559593 -0.060074 0.048816
H 1.913486 -0.186338 0.750929
H -1.858500 -0.779005 -0.239910
H -1.636263 0.743082 -0.467906
6
13 -152.6654576754 0.000000 %  @IN
O 1.513001 0.000023 -0.121985
O -1.385291 0.011944 0.110494
H 0.559593 0.095688 0.048816
H 1.913486 -0.158644 0.750929
H -1.600844 -0.835751 -0.327115
H -1.893919 0.686336 -0.380701
6
14 -152.6658296214 0.000000 %  @IN
O 1.513001 0.000023 -0.121985
O -1.385291 0.009951 0.110494
H 0.559593 0.079738 0.048816
H 1.913486 -0.132227 0.750929
H -1.625267 -0.823290 -0.331601
H -1.869496 0.698797 -0.376215
6
15 -152.6660490286 0.000000 %  @IN
O 1.513001 0.000023 -0.121985
O -1.385291 0.007957 0.110494
H 0.559593 0.063788 0.048816
H 1.913486 -0.105810 0.750929
H -1.649690 -0.810829 -0.336086
H -1.845073 0.711258 -0.371730
6
16 -152.6661648746 0.000000 %  @IN
O 1.513001 0.000023 -0.121985
O -1.385291 0.005963 0.110494
H 0.559593 0.047839 0.048816
H 1.913486 -0.079393 0.750929
H -1.674113 -0.798368 -0.340572
H -1.820650 0.723719 -0.367244
6
17 -152.6662174137 0.000000 %  @IN
O 1.513001 0.000023 -0.121985
O -1.385291 0.003969 0.110494
H 0.559593 0.031889 0.048816
H 1.913486 -0.052976 0.750929
H -1.698537 -0.785908 -0.345058
H -1.796226 0.736179 -0.362758
6
18 -152.6662366041 0.000000 %  @IN
O 1.513001 0.000023 -0.121985
O -1.385291 0.001976 0.110494
H 0.559593 0.015939 0.048816
H 1.913486 -0.026559 0.750929
H -1.722960 -0.773447 -0.349544
H -1.771803 0.748640 -0.358272
6
19 -152.6662409207 0.000000 %  @IN
O 1.513001 0.000023 -0.121985
O -1.385291 -0.000018 0.110494
H 0.559593 -0.000011 0.048816
H 1.913486 -0.000142 0.750929
H -1.747383 -0.760986 -0.354030
H -1.747380 0.761101 -0.353786
6
20 -152.6662366072 0.000000 %  @IN
O 1.513001 0.000023 -0.121985
O -1.385291 -0.002012 0.110494
H 0.559593 -0.015961 0.048816
H 1.913486 0.026275 0.750929
H -1.771806 -0.748525 -0.358516
H -1.722957 0.773562 -0.349300
6
21 -152.6662174261 0.000000 %  @IN
O 1.513001 0.000023 -0.121985
O -1.385291 -0.004005 0.110494
H 0.559593 -0.031911 0.048816
H 1.913486 0.052692 0.750929
H -1.796229 -0.736064 -0.363002
H -1.698534 0.786023 -0.344814
6
22 -152.6661649086 0.000000 %  @IN
O 1.513001 0.000023 -0.121985
O -1.385291 -0.005999 0.110494
H 0.559593 -0.047861 0.048816
H 1.913486 0.079109 0.750929
H -1.820653 -0.723604 -0.367488
H -1.674110 0.798483 -0.340328
6
23 -152.6660491027 0.000000 %  @IN
O 1.513001 0.000023 -0.121985
O -1.385291 -0.007993 0.110494
H 0.559593 -0.063810 0.048816
H 1.913486 0.105526 0.750929
H -1.845076 -0.711143 -0.371974
H -1.649687 0.810944 -0.335842
6
24 -152.6658297601 0.000000 %  @IN
O 1.513001 0.000023 -0.121985
O -1.385291 -0.009987 0.110494
H 0.559593 -0.079760 0.048816
H 1.913486 0.131943 0.750929
H -1.869499 -0.698682 -0.376459
H -1.625264 0.823405 -0.331357
6
25 -152.6654579090 0.000000 %  @IN
O 1.513001 0.000023 -0.121985
O -1.385291 -0.011980 0.110494
H 0.559593 -0.095710 0.048816
H 1.913486 0.158360 0.750929
H -1.893922 -0.686221 -0.380945
H -1.600841 0.835866 -0.326871
6
26 -152.6654189605 0.000000 %  @IN
O 1.465142 0.000023 -0.121985
O -1.358370 -0.000018 0.119468
H 0.529681 -0.000011 0.147525
H 1.964336 -0.000142 0.706061
H -1.585859 -0.760986 -0.452739
H -1.585856 0.761101 -0.452495
6
27 -152.6657858560 0.000000 %  @IN
O 1.473118 0.000023 -0.121985
O -1.362857 -0.000018 0.117972
H 0.534666 -0.000011 0.131074
H 1.955861 -0.000142 0.713539
H -1.612779 -0.760986 -0.436288
H -1.612776 0.761101 -0.436044
6
28 -152.6660130875 0.000000 %  @IN
O 1.481095 0.000023 -0.121985
O -1.367344 -0.000018 0.116476
H 0.539652 -0.000011 0.114622
H 1.947386 -0.000142 0.721017
H -1.639700 -0.760986 -0.419836
H -1.639697 0.761101 -0.419592
6
29 -152.6661418279 0.000000 %  @IN
O 1.489071 0.000023 -0.121985
O -1.371831 -0.000018 0.114981
H 0.544637 -0.000011 0.098171
H 1.938911 -0.000142 0.728495
H -1.666621 -0.760986 -0.403385
H -1.666618 0.761101 -0.403141
6
30 -152.6662066755 0.000000 %  @IN
O 1.497048 0.000023 -0.121985
O -1.376317 -0.000018 0.113485
H 0.549622 -0.000011 0.081719
H 1.930436 -0.000142 0.735973
H -1.693542 -0.760986 -0.386933
H -1.693539 0.761101 -0.386689
6
31 -152.6662340005 0.000000 %  @IN
O 1.505024 0.000023 -0.121985
O -1.380804 -0.000018 0.111990
H 0.554608 -0.000011 0.065268
H 1.921961 -0.000142 0.743451
H -1.720462 -0.760986 -0.370482
H -1.720459 0.761101 -0.370238
6
32 -152.6662409207 0.000000 %  @IN
O 1.513001 0.000023 -0.121985
O -1.385291 -0.000018 0.110494
H 0.559593 -0.000011 0.048816
H 1.913486 -0.000142 0.750929
H -1.747383 -0.760986 -0.354030
H -1.747380 0.761101 -0.353786
6
33 -152.6662345025 0.000000 %  @IN
O 1.520978 0.000023 -0.121985
O -1.389778 -0.000018 0.108998
H 0.564578 -0.000011 0.032364
H 1.905011 -0.000142 0.758407
H -1.774304 -0.760986 -0.337578
H -1.774301 0.761101 -0.337334
6
34 -152.6662114487 0.000000 %  @IN
O 1.528954 0.000023 -0.121985
O -1.394265 -0.000018 0.107503
H 0.569564 -0.000011 0.015913
H 1.896536 -0.000142 0.765885
H -1.801224 -0.760986 -0.321127
H -1.801221 0.761101 -0.320883
6
35 -152.6661582072 0.000000 %  @IN
O 1.536931 0.000023 -0.121985
O -1.398751 -0.000018 0.106007
H 0.574549 -0.000011 -0.000539
H 1.888061 -0.000142 0.773363
H -1.828145 -0.760986 -0.304675
H -1.828142 0.761101 -0.304431
6
36 -152.6660515521 0.000000 %  @IN
O 1.544907 0.000023 -0.121985
O -1.403238 -0.000018 0.104512
H 0.579534 -0.000011 -0.016990
H 1.879586 -0.000142 0.780841
H -1.855066 -0.760986 -0.288224
H -1.855063 0.761101 -0.287980
6
37 -152.6658596018 0.000000 %  @IN
O 1.552884 0.000023 -0.121985
O -1.407725 -0.000018 0.103016
H 0.584520 -0.000011 -0.033442
H 1.871111 -0.000142 0.788319
H -1.881987 -0.760986 -0.271772
H -1.881984 0.761101 -0.271528
6
38 -152.6655430797 0.000000 %  @IN
O 1.560860 0.000023 -0.121985
O -1.412212 -0.000018 0.101520
H 0.589505 -0.000011 -0.049893
H 1.862636 -0.000142 0.795797
H -1.908907 -0.760986 -0.255321
H -1.908904 0.761101 -0.255077
6
39 -152.6647453584 0.000000 %  @IN
O 1.564331 0.000023 -0.128024
O -1.460776 -0.000018 0.128610
H 0.629039 -0.000011 0.151475
H 2.067475 -0.000142 0.696580
H -1.662840 -0.757967 -0.465747
H -1.662837 0.758082 -0.465503
6
40 -152.6654049020 0.000000 %  @IN
O 1.555776 0.000023 -0.127017
O -1.448195 -0.000018 0.125591
H 0.617465 -0.000011 0.134365
H 2.041810 -0.000142 0.705638
H -1.676931 -0.758470 -0.447128
H -1.676928 0.758585 -0.446884
6
41 -152.6658156713 0.000000 %  @IN
O 1.547221 0.000023 -0.126011
O -1.435614 -0.000018 0.122572
H 0.605890 -0.000011 0.117255
H 2.016145 -0.000142 0.714696
H -1.691021 -0.758973 -0.428508
H -1.691018 0.759088 -0.428264
6
42 -152.6660507059 0.000000 %  @IN
O 1.538666 0.000023 -0.125004
O -1.423033 -0.000018 0.119552
H 0.594316 -0.000011 0.100146
H 1.990480 -0.000142 0.723755
H -1.705112 -0.759476 -0.409889
H -1.705109 0.759591 -0.409645
6
43 -152.6661718075 0.000000 %  @IN
O 1.530111 0.000023 -0.123998
O -1.410453 -0.000018 0.116533
H 0.582742 -0.000011 0.083036
H 1.964816 -0.000142 0.732813
H -1.719202 -0.759980 -0.391269
H -1.719199 0.760095 -0.391025
6
44 -152.6662256822 0.000000 %  @IN
O 1.521556 0.000023 -0.122991
O -1.397872 -0.000018 0.113513
H 0.571167 -0.000011 0.065926
H 1.939151 -0.000142 0.741871
H -1.733293 -0.760483 -0.372650
H -1.733290 0.760598 -0.372406
6
45 -152.6662409207 0.000000 %  @IN
O 1.513001 0.000023 -0.121985
O -1.385291 -0.000018 0.110494
H 0.559593 -0.000011 0.048816
H 1.913486 -0.000142 0.750929
H -1.747383 -0.760986 -0.354030
H -1.747380 0.761101 -0.353786
6
46 -152.6662260365 0.000000 %  @IN
O 1.504446 0.000023 -0.120979
O -1.372710 -0.000018 0.107475
H 0.548019 -0.000011 0.031706
H 1.887821 -0.000142 0.759987
H -1.761473 -0.761489 -0.335410
H -1.761470 0.761604 -0.335166
6
47 -152.6661687307 0.000000 %  @IN
O 1.495891 0.000023 -0.119972
O -1.360129 -0.000018 0.104455
H 0.536444 -0.000011 0.014596
H 1.862156 -0.000142 0.769045
H -1.775564 -0.761992 -0.316791
H -1.775561 0.762107 -0.316547
6
48 -152.6660364577 0.000000 %  @IN
O 1.487336 0.000023 -0.118966
O -1.347549 -0.000018 0.101436
H 0.524870 -0.000011 -0.002514
H 1.836492 -0.000142 0.778103
H -1.789654 -0.762496 -0.298171
H -1.789651 0.762611 -0.297927
6
49 -152.6657782119 0.000000 %  @IN
O 1.478781 0.000023 -0.117959
O -1.334968 -0.000018 0.098416
H 0.513296 -0.000011 -0.019623
H 1.810827 -0.000142 0.787162
H -1.803745 -0.762999 -0.279552
H -1.803742 0.763114 -0.279308
6
50 -152.6653274872 0.000000 %  @IN
O 1.470226 0.000023 -0.116953
O -1.322387 -0.000018 0.095397
H 0.501721 -0.000011 -0.036733
H 1.785162 -0.000142 0.796220
H -1.817835 -0.763502 -0.260932
H -1.817832 0.763617 -0.260688
6
51 -152.6646058803 0.000000 %  @IN
O 1.461671 0.000023 -0.115946
O -1.309806 -0.000018 0.092378
H 0.490147 -0.000011 -0.053843
H 1.759497 -0.000142 0.805278
H -1.831926 -0.764005 -0.242313
H -1.831923 0.764120 -0.242069
6
52 -152.6645965705 0.000000 %  @IN
O 1.525016 0.000023 -0.124989
O -1.394302 -0.000018 0.128517
H 0.538567 -0.000011 -0.128406
H 1.739268 -0.000142 0.832030
H -1.663278 -0.760986 -0.411101
H -1.663275 0.761101 -0.410857
6
53 -152.6652538586 0.000000 %  @IN
O 1.523014 0.000023 -0.124488
O -1.392800 -0.000018 0.125513
H 0.542071 -0.000011 -0.098869
H 1.768304 -0.000142 0.818514
H -1.677295 -0.760986 -0.401589
H -1.677292 0.761101 -0.401345
6
54 -152.6656934368 0.000000 %  @IN
O 1.521011 0.000023 -0.123988
O -1.391299 -0.000018 0.122509
H 0.545575 -0.000011 -0.069332
H 1.797341 -0.000142 0.804997
H -1.691313 -0.760986 -0.392078
H -1.691310 0.761101 -0.391834
6
55 -152.6659711768 0.000000 %  @IN
O 1.519009 0.000023 -0.123487
O -1.389797 -0.000018 0.119505
H 0.549080 -0.000011 -0.039795
H 1.826377 -0.000142 0.791480
H -1.705330 -0.760986 -0.382566
H -1.705327 0.761101 -0.382322
6
56 -152.6661336829 0.000000 %  @IN
O 1.517006 0.000023 -0.122986
O -1.388295 -0.000018 0.116502
H 0.552584 -0.000011 -0.010258
H 1.855413 -0.000142 0.777963
H -1.719348 -0.760986 -0.373054
H -1.719345 0.761101 -0.372810
6
57 -152.6662162156 0.000000 %  @IN
O 1.515004 0.000023 -0.122486
O -1.386793 -0.000018 0.113498
H 0.556089 -0.000011 0.019279
H 1.884450 -0.000142 0.764446
H -1.733365 -0.760986 -0.363542
H -1.733362 0.761101 -0.363298
6
58 -152.6662409207 0.000000 %  @IN
O 1.513001 0.000023 -0.121985
O -1.385291 -0.000018 0.110494
H 0.559593 -0.000011 0.048816
H 1.913486 -0.000142 0.750929
H -1.747383 -0.760986 -0.354030
H -1.747380 0.761101 -0.353786
6
59 -152.6662158031 0.000000 %  @IN
O 1.510998 0.000023 -0.121484
O -1.383789 -0.000018 0.107490
H 0.563097 -0.000011 0.078353
H 1.942522 -0.000142 0.737412
H -1.761401 -0.760986 -0.344518
H -1.761398 0.761101 -0.344274
6
60 -152.6661343978 0.000000 %  @IN
O 1.508996 0.000023 -0.120984
O -1.382287 -0.000018 0.104486
H 0.566602 -0.000011 0.107890
H 1.971559 -0.000142 0.723895
H -1.775418 -0.760986 -0.335006
H -1.775415 0.761101 -0.334762
6
61 -152.6659761952 0.000000 %  @IN
O 1.506993 0.000023 -0.120483
O -1.380785 -0.000018 0.101483
H 0.570106 -0.000011 0.137427
H 2.000595 -0.000142 0.710378
H -1.789436 -0.760986 -0.325494
H -1.789433 0.761101 -0.325250
6
62 -152.6657077958 0.000000 %  @IN
O 1.504991 0.000023 -0.119982
O -1.379283 -0.000018 0.098479
H 0.573611 -0.000011 0.166964
H 2.029631 -0.000142 0.696861
H -1.803453 -0.760986 -0.315982
H -1.803450 0.761101 -0.315738
6
63 -152.6652845623 0.000000 %  @IN
O 1.502988 0.000023 -0.119482
O -1.377782 -0.000018 0.095475
H 0.577115 -0.000011 0.196501
H 2.058668 -0.000142 0.683344
H -1.817471 -0.760986 -0.306471
H -1.817468 0.761101 -0.306227
6
64 -152.6646531128 0.000000 %  @IN
O 1.500986 0.000023 -0.118981
O -1.376280 -0.000018 0.092471
H 0.580619 -0.000011 0.226038
H 2.087704 -0.000142 0.669828
H -1.831488 -0.760986 -0.296959
H -1.831485 0.761101 -0.296715
6
65 -152.6623649403 0.000000 %  @IN
O 1.513001 0.009008 -0.121985
O -1.385291 0.011962 0.110494
H 0.559593 -0.278538 0.048816
H 1.913486 0.005848 0.750929
H -1.672510 -0.781950 -0.360020
H -1.822253 0.740137 -0.347796
6
66 -152.6638072826 0.000000 %  @IN
O 1.513001 0.007510 -0.121985
O -1.385291 0.009965 0.110494
H 0.559593 -0.232117 0.048816
H 1.913486 0.004850 0.750929
H -1.684989 -0.778456 -0.359022
H -1.809774 0.743631 -0.348794
6
67 -152.6648298626 0.000000 %  @IN
O 1.513001 0.006013 -0.121985
O -1.385291 0.007968 0.110494
H 0.559593 -0.185696 0.048816
H 1.913486 0.003851 0.750929
H -1.697468 -0.774962 -0.358023
H -1.797295 0.747125 -0.349793
6
68 -152.6655156228 0.000000 %  @IN
O 1.513001 0.004515 -0.121985
O -1.385291 0.005972 0.110494
H 0.559593 -0.139274 0.048816
H 1.913486 0.002853 0.750929
H -1.709947 -0.771468 -0.357025
H -1.784816 0.750619 -0.350791
6
69 -152.6659413847 0.000000 %  @IN
O 1.513001 0.003018 -0.121985
O -1.385291 0.003975 0.110494
H 0.559593 -0.092853 0.048816
H 1.913486 0.001855 0.750929
H -1.722425 -0.767974 -0.356027
H -1.772338 0.754113 -0.351789
6
70 -152.6661695736 0.000000 %  @IN
O 1.513001 0.001520 -0.121985
O -1.385291 0.001979 0.110494
H 0.559593 -0.046432 0.048816
H 1.913486 0.000856 0.750929
H -1.734904 -0.764480 -0.355028
H -1.759859 0.757607 -0.352788
6
71 -152.6662409207 0.000000 %  @IN
O 1.513001 0.000023 -0.121985
O -1.385291 -0.000018 0.110494
H 0.559593 -0.000011 0.048816
H 1.913486 -0.000142 0.750929
H -1.747383 -0.760986 -0.354030
H -1.747380 0.761101 -0.353786
6
72 -152.6661695959 0.000000 %  @IN
O 1.513001 -0.001474 -0.121985
O -1.385291 -0.002015 0.110494
H 0.559593 0.046410 0.048816
H 1.913486 -0.001140 0.750929
H -1.759862 -0.757492 -0.353032
H -1.734901 0.764595 -0.354784
6
73 -152.6659414676 0.000000 %  @IN
O 1.513001 -0.002972 -0.121985
O -1.385291 -0.004011 0.110494
H 0.559593 0.092831 0.048816
H 1.913486 -0.002139 0.750929
H -1.772341 -0.753998 -0.352033
H -1.722422 0.768089 -0.355783
6
74 -152.6655158380 0.000000 %  @IN
O 1.513001 -0.004469 -0.121985
O -1.385291 -0.006008 0.110494
H 0.559593 0.139252 0.048816
H 1.913486 -0.003137 0.750929
H -1.784819 -0.750504 -0.351035
H -1.709944 0.771583 -0.356781
6
75 -152.6648303064 0.000000 %  @IN
O 1.513001 -0.005967 -0.121985
O -1.385291 -0.008004 0.110494
H 0.559593 0.185674 0.048816
H 1.913486 -0.004135 0.750929
H -1.797298 -0.747010 -0.350037
H -1.697465 0.775077 -0.357779
6
76 -152.6638080643 0.000000 %  @IN
O 1.513001 -0.007464 -0.121985
O -1.385291 -0.010001 0.110494
H 0.559593 0.232095 0.048816
H 1.913486 -0.005134 0.750929
H -1.809777 -0.743516 -0.349038
H -1.684986 0.778571 -0.358778
6
77 -152.6623661699 0.000000 %  @IN
O 1.513001 -0.008962 -0.121985
O -1.385291 -0.011998 0.110494
H 0.559593 0.278516 0.048816
H 1.913486 -0.006132 0.750929
H -1.822256 -0.740022 -0.348040
H -1.672507 0.782065 -0.359776
6
78 -152.6505990318 0.000000 %  @IN
O 1.515983 0.000023 -0.124967
O -1.397217 -0.000018 0.095586
H 0.568538 -0.000011 0.099503
H 1.871744 -0.000142 0.771800
H -1.646010 -0.886212 -0.225822
H -1.646007 0.886327 -0.225578
6
79 -152.6551879490 0.000000 %  @IN
O 1.515486 0.000023 -0.124470
O -1.395230 -0.000018 0.098071
H 0.567047 -0.000011 0.091055
H 1.878701 -0.000142 0.768321
H -1.662905 -0.865341 -0.247190
H -1.662902 0.865456 -0.246946
6
80 -152.6590435419 0.000000 %  @IN
O 1.514989 0.000023 -0.123973
O -1.393242 -0.000018 0.100555
H 0.565556 -0.000011 0.082607
H 1.885658 -0.000142 0.764843
H -1.679801 -0.844470 -0.268558
H -1.679798 0.844585 -0.268314
6
81 -152.6621225281 0.000000 %  @IN
O 1.514492 0.000023 -0.123476
O -1.391254 -0.000018 0.103040
H 0.564065 -0.000011 0.074159
H 1.892615 -0.000142 0.761364
H -1.696696 -0.823599 -0.289926
H -1.696693 0.823714 -0.289682
6
82 -152.6643793993 0.000000 %  @IN
O 1.513995 0.000023 -0.122979
O -1.389266 -0.000018 0.105525
H 0.562575 -0.000011 0.065712
H 1.899572 -0.000142 0.757886
H -1.713592 -0.802728 -0.311294
H -1.713589 0.802843 -0.311050
6
83 -152.6657676328 0.000000 %  @IN
O 1.513498 0.000023 -0.122482
O -1.387279 -0.000018 0.108009
H 0.561084 -0.000011 0.057264
H 1.906529 -0.000142 0.754407
H -1.730487 -0.781857 -0.332662
H -1.730484 0.781972 -0.332418
6
84 -152.6662409207 0.000000 %  @IN
O 1.513001 0.000023 -0.121985
O -1.385291 -0.000018 0.110494
H 0.559593 -0.000011 0.048816
H 1.913486 -0.000142 0.750929
H -1.747383 -0.760986 -0.354030
H -1.747380 0.761101 -0.353786
6
85 -152.6657539260 0.000000 %  @IN
O 1.512504 0.000023 -0.121488
O -1.383303 -0.000018 0.112979
H 0.558102 -0.000011 0.040368
H 1.920443 -0.000142 0.747451
H -1.764279 -0.740115 -0.375398
H -1.764276 0.740230 -0.375154
6
86 -152.6642639279 0.000000 %  @IN
O 1.512007 0.000023 -0.120991
O -1.381316 -0.000018 0.115463
H 0.556611 -0.000011 0.031920
H 1.927400 -0.000142 0.743972
H -1.781174 -0.719244 -0.396766
H -1.781171 0.719359 -0.396522
6
87 -152.6617323309 0.000000 %  @IN
O 1.511510 0.000023 -0.120494
O -1.379328 -0.000018 0.117948
H 0.555121 -0.000011 0.023473
H 1.934357 -0.000142 0.740494
H -1.798070 -0.698373 -0.418134
H -1.798067 0.698488 -0.417890
6
88 -152.6581274675 0.000000 %  @IN
O 1.511013 0.000023 -0.119997
O -1.377340 -0.000018 0.120433
H 0.553630 -0.000011 0.015025
H 1.941314 -0.000142 0.737015
H -1.814965 -0.677502 -0.439502
H -1.814962 0.677617 -0.439258
6
89 -152.6534269308 0.000000 %  @IN
O 1.510516 0.000023 -0.119500
O -1.375352 -0.000018 0.122917
H 0.552139 -0.000011 0.006577
H 1.948271 -0.000142 0.733537
H -1.831861 -0.656631 -0.460870
H -1.831858 0.656746 -0.460626
6
90 -152.6476197142 0.000000 %  @IN
O 1.510019 0.000023 -0.119003
O -1.373365 -0.000018 0.125402
H 0.550648 -0.000011 -0.001871
H 1.955228 -0.000142 0.730058
H -1.848756 -0.635760 -0.482238
H -1.848753 0.635875 -0.481994
6
91 -152.6470526086 0.000000 %  @IN
O 1.521993 0.000023 -0.139970
O -1.382294 -0.000018 0.113491
H 0.598560 -0.000011 0.264633
H 1.739634 -0.000142 0.831860
H -1.774360 -0.731011 -0.381007
H -1.774357 0.731126 -0.380763
6
92 -152.6530296964 0.000000 %  @IN
O 1.520495 0.000023 -0.136972
O -1.382793 -0.000018 0.112992
H 0.592065 -0.000011 0.228663
H 1.768609 -0.000142 0.818372
H -1.769864 -0.736007 -0.376511
H -1.769861 0.736122 -0.376267
6
93 -152.6578721207 0.000000 %  @IN
O 1.518996 0.000023 -0.133975
O -1.383293 -0.000018 0.112492
H 0.585571 -0.000011 0.192694
H 1.797584 -0.000142 0.804883
H -1.765368 -0.741003 -0.372015
H -1.765365 0.741118 -0.371771
6
94 -152.6615888954 0.000000 %  @IN
O 1.517497 0.000023 -0.130977
O -1.383792 -0.000018 0.111993
H 0.579076 -0.000011 0.156724
H 1.826560 -0.000142 0.791395
H -1.760872 -0.745999 -0.367519
H -1.760869 0.746114 -0.367275
6
95 -152.6642006462 0.000000 %  @IN
O 1.515998 0.000023 -0.127980
O -1.384292 -0.000018 0.111493
H 0.572582 -0.000011 0.120755
H 1.855535 -0.000142 0.777906
H -1.756375 -0.750994 -0.363022
H -1.756372 0.751109 -0.362778
6
96 -152.6657384864 0.000000 %  @IN
O 1.514500 0.000023 -0.124982
O -1.384791 -0.000018 0.110994
H 0.566087 -0.000011 0.084785
H 1.884511 -0.000142 0.764418
H -1.751879 -0.755990 -0.358526
H -1.751876 0.756105 -0.358282
6
97 -152.6662409207 0.000000 %  @IN
O 1.513001 0.000023 -0.121985
O -1.385291 -0.000018 0.110494
H 0.559593 -0.000011 0.048816
H 1.913486 -0.000142 0.750929
H -1.747383 -0.760986 -0.354030
H -1.747380 0.761101 -0.353786
6
98 -152.6657517676 0.000000 %  @IN
O 1.511502 0.000023 -0.118988
O -1.385791 -0.000018 0.109994
H 0.553099 -0.000011 0.012847
H 1.942461 -0.000142 0.737440
H -1.742887 -0.765982 -0.349534
H -1.742884 0.766097 -0.349290
6
99 -152.6643180504 0.000000 %  @IN
O 1.510004 0.000023 -0.115990
O -1.386290 -0.000018 0.109495
H 0.546604 -0.000011 -0.023123
H 1.971437 -0.000142 0.723952
H -1.738391 -0.770978 -0.345038
H -1.738388 0.771093 -0.344794
6
100 -152.6619888236 0.000000 %  @IN
O 1.508505 0.000023 -0.112993
O -1.386790 -0.000018 0.108995
H 0.540110 -0.000011 -0.059092
H 2.000412 -0.000142 0.710463
H -1.733894 -0.775973 -0.340541
H -1.733891 0.776088 -0.340297
6
101 -152.6588137160 0.000000 %  @IN
O 1.507006 0.000023 -0.109995
O -1.387289 -0.000018 0.108496
H 0.533615 -0.000011 -0.095062
H 2.029388 -0.000142 0.696975
H -1.729398 -0.780969 -0.336045
H -1.729395 0.781084 -0.335801
6
102 -152.6548424715 0.000000 %  @IN
O 1.505507 0.000023 -0.106998
O -1.387789 -0.000018 0.107996
H 0.527121 -0.000011 -0.131031
H 2.058363 -0.000142 0.683486
H -1.724902 -0.785965 -0.331549
H -1.724899 0.786080 -0.331305
6
103 -152.6501228506 0.000000 %  @IN
O 1.504009 0.000023 -0.104000
O -1.388288 -0.000018 0.107497
H 0.520626 -0.000011 -0.167001
H 2.087338 -0.000142 0.669998
H -1.720406 -0.790961 -0.327053
H -1.720403 0.791076 -0.326809
6
104 -152.6173450697 0.000000 %  @IN
O 1.528034 0.000023 -0.131005
O -1.385291 -0.000018 0.110494
H 0.279977 -0.000011 0.087902
H 1.964599 -0.000142 0.832108
H -1.756403 -0.776019 -0.363050
H -1.756400 0.776134 -0.362806
6
105 -152.6289698761 0.000000 %  @IN
O 1.525529 0.000023 -0.129502
O -1.385291 -0.000018 0.110494
H 0.326580 -0.000011 0.081388
H 1.956080 -0.000142 0.818578
H -1.754900 -0.773514 -0.361547
H -1.754897 0.773629 -0.361303
6
106 -152.6399990314 0.000000 %  @IN
O 1.523023 0.000023 -0.127998
O -1.385291 -0.000018 0.110494
H 0.373182 -0.000011 0.074873
H 1.947561 -0.000142 0.805048
H -1.753396 -0.771008 -0.360043
H -1.753393 0.771123 -0.359799
6
107 -152.6499607517 0.000000 %  @IN
O 1.520518 0.000023 -0.126495
O -1.385291 -0.000018 0.110494
H 0.419785 -0.000011 0.068359
H 1.939042 -0.000142 0.791518
H -1.751893 -0.768503 -0.358540
H -1.751890 0.768618 -0.358296
6
108 -152.6582377797 0.000000 %  @IN
O 1.518012 0.000023 -0.124992
O -1.385291 -0.000018 0.110494
H 0.466388 -0.000011 0.061845
H 1.930524 -0.000142 0.777989
H -1.750390 -0.765997 -0.357037
H -1.750387 0.766112 -0.356793
6
109 -152.6640204479 0.000000 %  @IN
O 1.515507 0.000023 -0.123488
O -1.385291 -0.000018 0.110494
H 0.512990 -0.000011 0.055330
H 1.922005 -0.000142 0.764459
H -1.748886 -0.763492 -0.355533
H -1.748883 0.763607 -0.355289
6
110 -152.6662409207 0.000000 %  @IN
O 1.513001 0.000023 -0.121985
O -1.385291 -0.000018 0.110494
H 0.559593 -0.000011 0.048816
H 1.913486 -0.000142 0.750929
H -1.747383 -0.760986 -0.354030
H -1.747380 0.761101 -0.353786
6
111 -152.6634769852 0.000000 %  @IN
O 1.510495 0.000023 -0.120482
O -1.385291 -0.000018 0.110494
H 0.606196 -0.000011 0.042302
H 1.904967 -0.000142 0.737399
H -1.745880 -0.758480 -0.352527
H -1.745877 0.758595 -0.352283
6
112 -152.6538152146 0.000000 %  @IN
O 1.507990 0.000023 -0.118978
O -1.385291 -0.000018 0.110494
H 0.652798 -0.000011 0.035787
H 1.896448 -0.000142 0.723869
H -1.744376 -0.755975 -0.351023
H -1.744373 0.756090 -0.350779
6
113 -152.6346541719 0.000000 %  @IN
O 1.505484 0.000023 -0.117475
O -1.385291 -0.000018 0.110494
H 0.699401 -0.000011 0.029273
H 1.887930 -0.000142 0.710340
H -1.742873 -0.753469 -0.349520
H -1.742870 0.753584 -0.349276
6
114 -152.6024282880 0.000000 %  @IN
O 1.502979 0.000023 -0.115972
O -1.385291 -0.000018 0.110494
H 0.746004 -0.000011 0.022759
H 1.879411 -0.000142 0.696810
H -1.741370 -0.750964 -0.348017
H -1.741367 0.751079 -0.347773
6
115 -152.5522075707 0.000000 %  @IN
O 1.500473 0.000023 -0.114468
O -1.385291 -0.000018 0.110494
H 0.792606 -0.000011 0.016244
H 1.870892 -0.000142 0.683280
H -1.739866 -0.748458 -0.346513
H -1.739863 0.748573 -0.346269
6
116 -152.4771122185 0.000000 %  @IN
O 1.497968 0.000023 -0.112965
O -1.385291 -0.000018 0.110494
H 0.839209 -0.000011 0.009730
H 1.862373 -0.000142 0.669750
H -1.738363 -0.745953 -0.345010
H -1.738360 0.746068 -0.344766
6
117 -152.6079336518 0.000000 %  @IN
O 1.513001 0.000023 -0.121985
O -1.376258 -0.000018 0.122539
H 0.583682 -0.000011 0.045805
H 1.904453 -0.000142 0.735873
H -1.819651 -0.935633 -0.447376
H -1.819648 0.935748 -0.447132
6
118 -152.6227322431 0.000000 %  @IN
O 1.513001 0.000023 -0.121985
O -1.377763 -0.000018 0.120531
H 0.579667 -0.000011 0.046307
H 1.905958 -0.000142 0.738382
H -1.807606 -0.906525 -0.431818
H -1.807603 0.906640 -0.431574
6
119 -152.6362650221 0.000000 %  @IN
O 1.513001 0.000023 -0.121985
O -1.379269 -0.000018 0.118524
H 0.575653 -0.000011 0.046809
H 1.907464 -0.000142 0.740892
H -1.795562 -0.877418 -0.416261
H -1.795559 0.877533 -0.416017
6
120 -152.6480544189 0.000000 %  @IN
O 1.513001 0.000023 -0.121985
O -1.380774 -0.000018 0.116516
H 0.571638 -0.000011 0.047310
H 1.908969 -0.000142 0.743401
H -1.783517 -0.848310 -0.400703
H -1.783514 0.848425 -0.400459
6
121 -152.6575045635 0.000000 %  @IN
O 1.513001 0.000023 -0.121985
O -1.382280 -0.000018 0.114509
H 0.567623 -0.000011 0.047812
H 1.910475 -0.000142 0.745910
H -1.771472 -0.819202 -0.385145
H -1.771469 0.819317 -0.384901
6
122 -152.6638746678 0.000000 %  @IN
O 1.513001 0.000023 -0.121985
O -1.383785 -0.000018 0.112501
H 0.563608 -0.000011 0.048314
H 1.911980 -0.000142 0.748420
H -1.759428 -0.790094 -0.369588
H -1.759425 0.790209 -0.369344
6
123 -152.6662409207 0.000000 %  @IN
O 1.513001 0.000023 -0.121985
O -1.385291 -0.000018 0.110494
H 0.559593 -0.000011 0.048816
H 1.913486 -0.000142 0.750929
H -1.747383 -0.760986 -0.354030
H -1.747380 0.761101 -0.353786
6
124 -152.6634465959 0.000000 %  @IN
O 1.513001 0.000023 -0.121985
O -1.386797 -0.000018 0.108487
H 0.555578 -0.000011 0.049318
H 1.914992 -0.000142 0.753438
H -1.735338 -0.731878 -0.338472
H -1.735335 0.731993 -0.338228
6
125 -152.6540395291 0.000000 %  @IN
O 1.513001 0.000023 -0.121985
O -1.388302 -0.000018 0.106479
H 0.551563 -0.000011 0.049820
H 1.916497 -0.000142 0.755948
H -1.723294 -0.702770 -0.322915
H -1.723291 0.702885 -0.322671
6
126 -152.6361900930 0.000000 %  @IN
O 1.513001 0.000023 -0.121985
O -1.389808 -0.000018 0.104472
H 0.547548 -0.000011 0.050322
H 1.918003 -0.000142 0.758457
H -1.711249 -0.673662 -0.307357
H -1.711246 0.673777 -0.307113
6
127 -152.6075881911 0.000000 %  @IN
O 1.513001 0.000023 -0.121985
O -1.391313 -0.000018 0.102464
H 0.543533 -0.000011 0.050823
H 1.919508 -0.000142 0.760966
H -1.699204 -0.644554 -0.291799
H -1.699201 0.644669 -0.291555
6
128 -152.5653100788 0.000000 %  @IN
O 1.513001 0.000023 -0.121985
O -1.392819 -0.000018 0.100457
H 0.539519 -0.000011 0.051325
H 1.921014 -0.000142 0.763476
H -1.687160 -0.615447 -0.276242
H -1.687157 0.615562 -0.275998
6
129 -152.5056305029 0.000000 %  @IN
O 1.513001 0.000023 -0.121985
O -1.394324 -0.000018 0.098449
H 0.535504 -0.000011 0.051827
H 1.922519 -0.000142 0.765985
H -1.675115 -0.586339 -0.260684
H -1.675112 0.586454 -0.260440
6
130 -152.6037503382 0.000000 %  @IN
O 1.498012 0.000023 -0.136974
O -1.385291 -0.000018 0.110494
H 0.649526 -0.000011 0.024834
H 2.039392 -0.000142 1.005738
H -1.750381 -0.766982 -0.357028
H -1.750378 0.767097 -0.356784
6
131 -152.6199137601 0.000000 %  @IN
O 1.500510 0.000023 -0.134476
O -1.385291 -0.000018 0.110494
H 0.634537 -0.000011 0.028831
H 2.018407 -0.000142 0.963270
H -1.749881 -0.765982 -0.356528
H -1.749878 0.766097 -0.356284
6
132 -152.6344135090 0.000000 %  @IN
O 1.503008 0.000023 -0.131978
O -1.385291 -0.000018 0.110494
H 0.619548 -0.000011 0.032828
H 1.997423 -0.000142 0.920802
H -1.749382 -0.764983 -0.356029
H -1.749379 0.765098 -0.355785
6
133 -152.6469141733 0.000000 %  @IN
O 1.505507 0.000023 -0.129479
O -1.385291 -0.000018 0.110494
H 0.604559 -0.000011 0.036825
H 1.976439 -0.000142 0.878333
H -1.748882 -0.763984 -0.355529
H -1.748879 0.764099 -0.355285
6
134 -152.6569135758 0.000000 %  @IN
O 1.508005 0.000023 -0.126981
O -1.385291 -0.000018 0.110494
H 0.589571 -0.000011 0.040822
H 1.955455 -0.000142 0.835865
H -1.748382 -0.762985 -0.355029
H -1.748379 0.763100 -0.354785
6
135 -152.6636936753 0.000000 %  @IN
O 1.510503 0.000023 -0.124483
O -1.385291 -0.000018 0.110494
H 0.574582 -0.000011 0.044819
H 1.934470 -0.000142 0.793397
H -1.747883 -0.761985 -0.354530
H -1.747880 0.762100 -0.354286
6
136 -152.6662409207 0.000000 %  @IN
O 1.513001 0.000023 -0.121985
O -1.385291 -0.000018 0.110494
H 0.559593 -0.000011 0.048816
H 1.913486 -0.000142 0.750929
H -1.747383 -0.760986 -0.354030
H -1.747380 0.761101 -0.353786
6
137 -152.6631370751 0.000000 %  @IN
O 1.515499 0.000023 -0.119487
O -1.385291 -0.000018 0.110494
H 0.544604 -0.000011 0.052813
H 1.892502 -0.000142 0.708461
H -1.746883 -0.759987 -0.353530
H -1.746880 0.760102 -0.353286
6
138 -152.6524007808 0.000000 %  @IN
O 1.517997 0.000023 -0.116989
O -1.385291 -0.000018 0.110494
H 0.529615 -0.000011 0.056810
H 1.871517 -0.000142 0.665993
H -1.746384 -0.758987 -0.353031
H -1.746381 0.759102 -0.352787
6
139 -152.6312646902 0.000000 %  @IN
O 1.520495 0.000023 -0.114491
O -1.385291 -0.000018 0.110494
H 0.514627 -0.000011 0.060807
H 1.850533 -0.000142 0.623525
H -1.745884 -0.757988 -0.352531
H -1.745881 0.758103 -0.352287
6
140 -152.5958537487 0.000000 %  @IN
O 1.522994 0.000023 -0.111992
O -1.385291 -0.000018 0.110494
H 0.499638 -0.000011 0.064804
H 1.829549 -0.000142 0.581056
H -1.745384 -0.756989 -0.352031
H -1.745381 0.757104 -0.351787
6
141 -152.5407245259 0.000000 %  @IN
O 1.525492 0.000023 -0.109494
O -1.385291 -0.000018 0.110494
H 0.484649 -0.000011 0.068801
H 1.808565 -0.000142 0.538588
H -1.744885 -0.755990 -0.351532
H -1.744882 0.756105 -0.351288
6
142 -152.4581486204 0.000000 %  @IN
O 1.527990 0.000023 -0.106996
O -1.385291 -0.000018 0.110494
H 0.469660 -0.000011 0.072798
H 1.787580 -0.000142 0.496120
H -1.744385 -0.754990 -0.351032
H -1.744382 0.755105 -0.350788
6
143 -152.5445266475 0.000000 %  @IN
O 1.513001 0.000023 -0.121985
O -1.385291 -0.020923 0.110494
H 0.559593 -0.000011 0.048816
H 1.913486 -0.000142 0.750929
H -1.666749 -0.593745 -0.252491
H -1.828014 0.928342 -0.455325
6
144 -152.5861874628 0.000000 %  @IN
O 1.513001 0.000023 -0.121985
O -1.385291 -0.017439 0.110494
H 0.559593 -0.000011 0.048816
H 1.913486 -0.000142 0.750929
H -1.680188 -0.621619 -0.269414
H -1.814575 0.900468 -0.438402
6
145 -152.6172451489 0.000000 %  @IN
O 1.513001 0.000023 -0.121985
O -1.385291 -0.013955 0.110494
H 0.559593 -0.000011 0.048816
H 1.913486 -0.000142 0.750929
H -1.693627 -0.649492 -0.286337
H -1.801136 0.872595 -0.421479
6
146 -152.6396262383 0.000000 %  @IN
O 1.513001 0.000023 -0.121985
O -1.385291 -0.010471 0.110494
H 0.559593 -0.000011 0.048816
H 1.913486 -0.000142 0.750929
H -1.707066 -0.677366 -0.303260
H -1.787697 0.844721 -0.404556
6
147 -152.6547046119 0.000000 %  @IN
O 1.513001 0.000023 -0.121985
O -1.385291 -0.006986 0.110494
H 0.559593 -0.000011 0.048816
H 1.913486 -0.000142 0.750929
H -1.720505 -0.705239 -0.320184
H -1.774258 0.816848 -0.387632
6
148 -152.6633999540 0.000000 %  @IN
O 1.513001 0.000023 -0.121985
O -1.385291 -0.003502 0.110494
H 0.559593 -0.000011 0.048816
H 1.913486 -0.000142 0.750929
H -1.733944 -0.733113 -0.337107
H -1.760819 0.788974 -0.370709
6
149 -152.6662409207 0.000000 %  @IN
O 1.513001 0.000023 -0.121985
O -1.385291 -0.000018 0.110494
H 0.559593 -0.000011 0.048816
H 1.913486 -0.000142 0.750929
H -1.747383 -0.760986 -0.354030
H -1.747380 0.761101 -0.353786
6
150 -152.6634000180 0.000000 %  @IN
O 1.513001 0.000023 -0.121985
O -1.385291 0.003466 0.110494
H 0.559593 -0.000011 0.048816
H 1.913486 -0.000142 0.750929
H -1.760822 -0.788859 -0.370953
H -1.733941 0.733228 -0.336863
6
151 -152.6547046493 0.000000 %  @IN
O 1.513001 0.000023 -0.121985
O -1.385291 0.006950 0.110494
H 0.559593 -0.000011 0.048816
H 1.913486 -0.000142 0.750929
H -1.774261 -0.816733 -0.387876
H -1.720502 0.705354 -0.319940
6
152 -152.6396260545 0.000000 %  @IN
O 1.513001 0.000023 -0.121985
O -1.385291 0.010435 0.110494
H 0.559593 -0.000011 0.048816
H 1.913486 -0.000142 0.750929
H -1.787700 -0.844606 -0.404800
H -1.707063 0.677481 -0.303016
6
153 -152.6172444171 0.000000 %  @IN
O 1.513001 0.000023 -0.121985
O -1.385291 0.013919 0.110494
H 0.559593 -0.000011 0.048816
H 1.913486 -0.000142 0.750929
H -1.801139 -0.872480 -0.421723
H -1.693624 0.649607 -0.286093
6
154 -152.5861856752 0.000000 %  @IN
O 1.513001 0.000023 -0.121985
O -1.385291 0.017403 0.110494
H 0.559593 -0.000011 0.048816
H 1.913486 -0.000142 0.750929
H -1.814578 -0.900353 -0.438646
H -1.680185 0.621734 -0.269170
6
155 -152.5445230381 0.000000 %  @IN
O 1.513001 0.000023 -0.121985
O -1.385291 0.020887 0.110494
H 0.559593 -0.000011 0.048816
H 1.913486 -0.000142 0.750929
H -1.828017 -0.928227 -0.455569
H -1.666746 0.593860 -0.252247
