11
0 -304.5281307219 0.000066 % @FREQ 27 -11.782 -11.655 21.013 177.878 178.046 240.598 296.150 303.032 303.120 384.985 385.169 514.751 553.460 553.655 1024.170 1039.578 1039.894 1692.182 1709.702 1709.730 2860.384 2861.327 3028.148 3854.472 3869.977 3870.000 3870.688 @IN
O -2.184545 -0.863616 -0.297064
O 0.344164 2.323318 -0.296878
O -0.000115 -0.000248 0.888129
O 1.840695 -1.459494 -0.296980
H 1.138909 -0.941255 0.221504
H -1.777831 -1.556977 -0.832008
H 0.245271 1.456268 0.221275
H -0.459666 2.317705 -0.831821
H -0.000857 0.000339 1.853920
H -1.384229 -0.515871 0.221213
H 2.236817 -0.759888 -0.831746
