10
0 -229.1438423037 0.000012 % @FREQ 24 71.967 86.781 116.435 157.397 205.321 332.764 380.552 382.230 396.701 476.059 570.854 1090.224 1224.985 1601.305 1628.065 1660.683 1694.460 2542.609 2669.086 3779.276 3779.628 3788.441 3898.397 3898.979 @IN
O -0.000001 0.828293 0.037909
O -2.200605 -0.364846 -0.003654
O 2.200605 -0.364846 -0.003653
H -0.878698 0.283448 -0.007893
H 0.878697 0.283449 -0.007891
H -2.499414 -1.079094 -0.583943
H -2.775754 -0.374312 0.775050
H 2.775756 -0.374314 0.775050
H 2.499419 -1.079085 -0.583950
H 0.000000 1.551103 -0.611236
