13
0 -305.4368085321 0.000007 % @FREQ 33 62.546 62.548 70.593 115.217 115.233 125.413 259.543 281.521 281.543 285.050 344.049 344.055 378.416 378.426 419.288 725.040 971.511 971.532 1202.151 1622.815 1622.819 1638.149 1709.456 1709.472 2937.692 2937.707 3009.930 3781.817 3781.819 3782.755 3900.528 3900.530 3901.017 @IN
O -0.780820 2.360333 0.144993
O 0.000035 -0.000024 -0.489752
O -1.653792 -1.856324 0.144989
O 2.434582 -0.503985 0.145000
H -0.988030 3.000395 -0.550932
H -2.104391 -2.355833 -0.550985
H -1.331259 2.606038 0.901829
H 3.092495 -0.644451 -0.550951
H -0.347593 0.907785 -0.204899
H -0.612343 -0.754959 -0.204847
H -1.591525 -2.455821 0.901876
H 0.960016 -0.152865 -0.204836
H 2.922590 -0.150285 0.901900
