13
0 -305.4305835153 0.000018 % @FREQ 33 -28.135 25.796 51.711 107.139 145.873 163.106 278.792 294.329 301.588 309.145 356.330 360.519 418.470 597.414 603.150 649.446 730.056 971.401 1026.605 1474.029 1546.263 1633.631 1634.631 1717.533 1755.442 3097.839 3131.443 3782.179 3782.591 3827.838 3829.602 3901.308 3901.746 @IN
O -2.553260 1.056613 -0.144058
O -1.172569 -1.110784 0.236721
O 1.176718 -1.112807 -0.236021
O 2.548843 1.061121 0.143406
H -2.744665 1.749840 0.503100
H -1.715069 -0.269303 0.153532
H -1.400616 -1.559326 1.064382
H 0.001241 -1.060256 0.000445
H 1.720503 -0.272235 -0.153786
H 1.405240 -1.563856 -1.062151
H 2.742389 1.749102 -0.508744
H 3.315470 1.041853 0.734043
H -3.322346 1.031045 -0.731201
