13
0 -305.4305590921 0.000031 % @FREQ 33 25.244 59.644 71.922 105.374 138.262 199.965 233.290 287.473 306.101 324.217 346.706 352.583 406.111 502.680 592.977 650.222 922.643 1027.505 1181.146 1395.992 1596.262 1632.782 1644.856 1715.220 1776.018 2971.827 3225.146 3783.997 3785.313 3816.557 3839.405 3903.200 3905.514 @IN
O -3.043626 0.679484 0.239429
O 1.058599 -0.771648 0.593978
O 3.030569 0.695419 -0.139241
O -0.978989 -0.653177 -0.687374
H -3.766859 0.330891 0.779298
H 0.078987 -0.703069 0.034760
H 1.798887 -0.158074 0.274846
H 0.969930 -0.693368 1.556169
H -1.242013 -1.474394 -1.127019
H 3.015756 1.601209 -0.478030
H 3.847922 0.297684 -0.471105
H -1.800138 -0.199451 -0.345788
H -3.434890 1.397946 -0.277471
