13
0 -305.4368085229 0.000006 % @FREQ 33 62.544 62.544 70.320 114.625 114.718 124.915 259.474 281.478 281.488 284.952 344.002 344.009 378.215 378.231 419.148 724.758 971.472 971.522 1201.843 1622.822 1622.830 1638.165 1709.378 1709.400 2938.116 2938.167 3010.252 3781.898 3781.908 3782.841 3900.591 3900.599 3901.083 @IN
O 2.417594 -0.580638 0.144857
O -1.711636 -1.803376 0.144862
O -0.705962 2.384006 0.144894
O 0.000006 -0.000002 -0.489321
H 2.916702 -0.243442 0.902044
H -1.668991 -2.404449 0.901851
H -2.177185 -2.288525 -0.551423
H 3.070600 -0.740843 -0.551446
H -1.247940 2.647674 0.901782
H -0.893207 3.029724 -0.551459
H -0.318820 0.918296 -0.204512
H -0.635879 -0.735280 -0.204605
H 0.954701 -0.183080 -0.204566
