16
0 -381.7214486768 0.000007 % @FREQ 42 31.162 61.972 76.350 91.656 104.996 134.234 188.318 215.052 231.628 245.317 284.390 291.936 299.827 331.889 362.449 383.156 422.109 505.450 536.238 646.986 693.266 725.661 916.720 940.777 1275.788 1619.583 1624.549 1628.678 1654.215 1670.798 1795.360 2822.814 2915.388 3047.039 3635.178 3656.929 3759.378 3788.494 3867.211 3871.134 3871.996 3909.447 @IN
O -0.692835 1.823919 -0.083816
O -0.616178 -1.811394 -0.105296
O 1.007184 0.043430 -0.762161
O 3.255099 -0.042659 0.501409
O -2.809907 -0.041455 0.401826
H -0.856967 2.681273 -0.499425
H -1.561911 1.398176 0.045380
H -1.506667 -1.432868 0.022005
H -0.731432 -2.680612 -0.512446
H 1.864267 0.051126 -0.229025
H 0.415983 0.840425 -0.534187
H 4.095242 0.042900 0.029561
H 3.435704 0.213686 1.416122
H -3.127037 -0.056533 1.318150
H -3.621837 -0.052215 -0.127735
H 0.447751 -0.780083 -0.544102
