6
0 -152.5302069349 0.000013 % @FREQ 12 126.481 147.508 150.955 183.331 357.613 638.723 1624.083 1642.504 3704.430 3795.944 3904.750 3925.001 @IN
O -1.390447 -0.000065 0.112473
O 1.517169 0.000084 -0.122870
H -1.747581 0.762907 -0.361522
H -1.747513 -0.762517 -0.362410
H 0.560486 -0.000012 0.053666
H 1.920835 -0.000524 0.753438
